cases/case_ACTIVSg2000.m
%% MATPOWER Case Format : Version 2
function mpc = case_ACTIVSg2000
mpc.version = '2';

%%-----  Power Flow Data  -----%%
%% system MVA base
mpc.baseMVA = 100;
%% bus data
%    bus_i    type    Pd    Qd    Gs    Bs    area    Vm    Va    baseKV    zone    Vmax    Vmin
mpc.bus = [
	1001	1	20.78	5.89	0.0	0.0	1	0.9983719999999999	-22.3462	115.0	9	1.1	0.9	0.0	0.0	0.0	0.0
	1002	1	15.410000000000002	4.37	0.0	0.0	1	1.02291	-17.8585	115.0	9	1.1	0.9	0.0	0.0	0.0	0.0
	1003	1	0.0	0.0	0.0	0.0	1	1.0141	-17.5032	115.0	9	1.1	0.9	0.0	0.0	0.0	0.0
	1004	2	0.0	0.0	0.0	0.0	1	1.02005	-19.3247	230.0	9	1.1	0.9	0.0	0.0	0.0	0.0
	1005	1	0.0	0.0	0.0	0.0	1	1.0123799999999998	-15.9276	115.0	9	1.1	0.9	0.0	0.0	0.0	0.0
	1006	2	0.0	0.0	0.0	0.0	1	1.00599	-13.7815	13.8	9	1.1	0.9	0.0	0.0	0.0	0.0
	1007	1	7.01	1.9900000000000002	0.0	-0.77	1	1.03	-18.2162	115.0	9	1.1	0.9	0.0	0.0	0.0	0.0
	1008	1	0.0	0.0	0.0	0.0	1	1.02615	-8.58995	115.0	9	1.1	0.9	0.0	0.0	0.0	0.0
	1009	2	0.0	0.0	0.0	0.0	1	1.0162	-5.3388599999999995	13.8	9	1.1	0.9	0.0	0.0	0.0	0.0
	1010	1	0.0	0.0	0.0	-3.3300000000000005	1	1.03	-16.5896	115.0	9	1.1	0.9	0.0	0.0	0.0	0.0
	1011	2	0.0	0.0	0.0	0.0	1	1.0302200000000001	-14.8392	22.0	9	1.1	0.9	0.0	0.0	0.0	0.0
	1012	1	2.99	0.8500000000000001	0.0	11.3	1	1.03	-25.191	115.0	9	1.1	0.9	0.0	0.0	0.0	0.0
	1013	1	29.23	8.28	0.0	0.0	1	1.0142799999999998	-15.197100000000002	115.0	9	1.1	0.9	0.0	0.0	0.0	0.0
	1014	1	2.22	0.63	0.0	0.0	1	1.02099	-11.7776	115.0	9	1.1	0.9	0.0	0.0	0.0	0.0
	1015	1	7.51	2.13	0.0	0.0	1	1.03195	-17.9787	115.0	9	1.1	0.9	0.0	0.0	0.0	0.0
	1016	1	2.89	0.8199999999999998	0.0	39.43	1	1.03	-15.391499999999999	115.0	9	1.1	0.9	0.0	0.0	0.0	0.0
	1017	1	18.34	5.2	0.0	0.0	1	0.996559	-21.1078	115.0	9	1.1	0.9	0.0	0.0	0.0	0.0
	1018	1	0.07	0.02	0.0	0.0	1	1.0003	-19.8254	115.0	9	1.1	0.9	0.0	0.0	0.0	0.0
	1019	1	61.78	17.5	0.0	261.44	1	1.03	-22.081999999999997	115.0	9	1.1	0.9	0.0	0.0	0.0	0.0
	1020	1	0.0	0.0	0.0	71.32	1	1.03	-15.157500000000002	115.0	9	1.1	0.9	0.0	0.0	0.0	0.0
	1021	2	0.0	0.0	0.0	0.0	1	1.00587	-8.62704	13.8	9	1.1	0.9	0.0	0.0	0.0	0.0
	1022	1	0.0	0.0	0.0	0.0	1	1.01661	-16.6531	115.0	9	1.1	0.9	0.0	0.0	0.0	0.0
	1023	2	0.0	0.0	0.0	0.0	1	1.01	-7.774760000000001	13.8	9	1.1	0.9	0.0	0.0	0.0	0.0
	1024	1	63.04	17.86	0.0	0.0	1	0.999026	-18.8019	115.0	9	1.1	0.9	0.0	0.0	0.0	0.0
	1025	1	0.0	0.0	0.0	0.0	1	1.02427	-14.0817	115.0	9	1.1	0.9	0.0	0.0	0.0	0.0
	1026	2	0.0	0.0	0.0	0.0	1	1.0	-4.617080000000001	13.8	9	1.1	0.9	0.0	0.0	0.0	0.0
	1027	1	101.21	28.68	0.0	88.7	1	1.03	-25.5841	115.0	9	1.1	0.9	0.0	0.0	0.0	0.0
	1028	1	10.01	2.84	0.0	0.0	1	1.01989	-18.2276	115.0	9	1.1	0.9	0.0	0.0	0.0	0.0
	1029	1	83.18	23.57	0.0	61.199999999999996	1	1.03	-24.6101	115.0	9	1.1	0.9	0.0	0.0	0.0	0.0
	1030	1	24.63	6.98	0.0	0.0	1	1.0225600000000001	-13.3008	115.0	9	1.1	0.9	0.0	0.0	0.0	0.0
	1031	1	9.25	2.62	0.0	0.0	1	1.02159	-17.4156	115.0	9	1.1	0.9	0.0	0.0	0.0	0.0
	1032	1	0.0	0.0	0.0	0.0	1	1.0098799999999999	-12.2347	115.0	9	1.1	0.9	0.0	0.0	0.0	0.0
	1033	2	0.0	0.0	0.0	61.95	1	1.03004	-16.769000000000002	230.0	9	1.1	0.9	0.0	0.0	0.0	0.0
	1034	1	0.0	0.0	0.0	0.0	1	1.01013	-14.1633	115.0	9	1.1	0.9	0.0	0.0	0.0	0.0
	1035	2	0.0	0.0	0.0	0.0	1	1.00042	-10.8778	13.8	9	1.1	0.9	0.0	0.0	0.0	0.0
	1036	1	13.600000000000001	3.85	0.0	0.0	1	1.00226	-12.4195	115.0	9	1.1	0.9	0.0	0.0	0.0	0.0
	1037	1	102.24	28.970000000000002	0.0	0.0	1	0.9904930000000001	-22.1747	115.0	9	1.1	0.9	0.0	0.0	0.0	0.0
	1038	1	0.0	0.0	0.0	0.0	1	1.02516	-7.64916	115.0	9	1.1	0.9	0.0	0.0	0.0	0.0
	1039	2	0.0	0.0	0.0	0.0	1	1.0048	-2.33133	22.0	9	1.1	0.9	0.0	0.0	0.0	0.0
	1040	1	44.36	12.57	0.0	0.0	1	1.00614	-20.1249	115.0	9	1.1	0.9	0.0	0.0	0.0	0.0
	1041	1	0.0	0.0	0.0	0.0	1	1.00661	-14.9184	115.0	9	1.1	0.9	0.0	0.0	0.0	0.0
	1042	1	0.0	0.0	0.0	0.0	1	1.00661	-14.9184	13.8	9	1.1	0.9	0.0	0.0	0.0	0.0
	1043	2	0.0	0.0	0.0	0.0	1	1.0	-11.6843	13.8	9	1.1	0.9	0.0	0.0	0.0	0.0
	1044	1	14.679999999999998	4.16	0.0	0.0	1	1.0179200000000002	-25.6916	115.0	9	1.1	0.9	0.0	0.0	0.0	0.0
	1045	1	98.56	27.93	0.0	0.0	1	1.0034399999999999	-24.0542	115.0	9	1.1	0.9	0.0	0.0	0.0	0.0
	1046	1	11.08	3.1400000000000006	0.0	13.119999999999997	1	1.03	-22.3261	115.0	9	1.1	0.9	0.0	0.0	0.0	0.0
	1047	1	0.0	0.0	0.0	0.0	1	1.01175	-13.1298	115.0	9	1.1	0.9	0.0	0.0	0.0	0.0
	1048	1	0.0	0.0	0.0	0.0	1	1.01175	-13.1298	18.0	9	1.1	0.9	0.0	0.0	0.0	0.0
	1049	1	0.0	0.0	0.0	0.0	1	1.01175	-13.1298	18.0	9	1.1	0.9	0.0	0.0	0.0	0.0
	1050	2	0.0	0.0	0.0	0.0	1	1.00076	-8.084019999999999	18.0	9	1.1	0.9	0.0	0.0	0.0	0.0
	1051	2	0.0	0.0	0.0	0.0	1	1.0	-6.60451	18.0	9	1.1	0.9	0.0	0.0	0.0	0.0
	1052	2	0.0	0.0	0.0	0.0	1	1.00416	-8.94709	18.0	9	1.1	0.9	0.0	0.0	0.0	0.0
	1053	1	0.0	0.0	0.0	0.0	1	1.02653	-17.1224	230.0	9	1.1	0.9	0.0	0.0	0.0	0.0
	1054	1	14.99	4.25	0.0	0.0	1	1.0132	-22.1326	115.0	9	1.1	0.9	0.0	0.0	0.0	0.0
	1055	1	3.9800000000000004	1.13	0.0	0.0	1	1.00688	-18.4852	115.0	9	1.1	0.9	0.0	0.0	0.0	0.0
	1056	1	0.0	0.0	0.0	33.22	1	1.03	-21.5409	115.0	9	1.1	0.9	0.0	0.0	0.0	0.0
	1057	1	0.0	0.0	0.0	0.0	1	1.03	-21.5409	18.0	9	1.1	0.9	0.0	0.0	0.0	0.0
	1058	1	13.459999999999999	3.81	0.0	0.0	1	1.02675	-11.1878	115.0	9	1.1	0.9	0.0	0.0	0.0	0.0
	1059	1	0.0	0.0	0.0	0.0	1	1.02675	-11.1878	22.0	9	1.1	0.9	0.0	0.0	0.0	0.0
	1060	1	0.0	0.0	0.0	0.0	1	1.02675	-11.1878	22.0	9	1.1	0.9	0.0	0.0	0.0	0.0
	1061	1	0.0	0.0	0.0	0.0	1	1.01393	-17.0591	115.0	9	1.1	0.9	0.0	0.0	0.0	0.0
	1062	1	0.0	0.0	0.0	0.0	1	1.01393	-17.0591	13.8	9	1.1	0.9	0.0	0.0	0.0	0.0
	1063	1	0.0	0.0	0.0	0.0	1	1.01393	-17.0591	13.8	9	1.1	0.9	0.0	0.0	0.0	0.0
	1064	1	123.76	35.07	0.0	0.0	1	0.993391	-23.7293	115.0	9	1.1	0.9	0.0	0.0	0.0	0.0
	1065	1	0.0	0.0	0.0	0.0	1	1.00912	-14.739099999999999	115.0	9	1.1	0.9	0.0	0.0	0.0	0.0
	1066	2	0.0	0.0	0.0	0.0	1	1.0	-7.230580000000001	13.8	9	1.1	0.9	0.0	0.0	0.0	0.0
	1067	1	101.55000000000001	28.77	0.0	0.0	1	1.00407	-15.5007	115.0	9	1.1	0.9	0.0	0.0	0.0	0.0
	1068	1	59.4	16.83	0.0	0.0	1	0.9934719999999999	-16.2849	115.0	9	1.1	0.9	0.0	0.0	0.0	0.0
	1069	1	0.0	0.0	0.0	0.0	1	1.02867	-8.71349	115.0	9	1.1	0.9	0.0	0.0	0.0	0.0
	1070	2	0.0	0.0	0.0	0.0	1	1.04	-4.2219999999999995	13.8	9	1.1	0.9	0.0	0.0	0.0	0.0
	1071	1	91.46	25.91	0.0	0.0	1	1.0040200000000001	-21.1126	115.0	9	1.1	0.9	0.0	0.0	0.0	0.0
	1072	2	0.0	0.0	0.0	0.0	1	1.01	-11.8352	18.0	9	1.1	0.9	0.0	0.0	0.0	0.0
	1073	2	0.0	0.0	0.0	0.0	1	1.01	-5.5374300000000005	18.0	9	1.1	0.9	0.0	0.0	0.0	0.0
	1074	2	0.0	0.0	0.0	0.0	1	1.01	-7.54851	18.0	9	1.1	0.9	0.0	0.0	0.0	0.0
	1075	2	0.0	0.0	0.0	0.0	1	1.01	-10.2802	18.0	9	1.1	0.9	0.0	0.0	0.0	0.0
	1076	1	0.0	0.0	0.0	0.0	1	1.0040200000000001	-21.1126	18.0	9	1.1	0.9	0.0	0.0	0.0	0.0
	1077	1	0.0	0.0	0.0	0.0	1	1.0040200000000001	-21.1126	18.0	9	1.1	0.9	0.0	0.0	0.0	0.0
	1078	2	0.0	0.0	0.0	0.0	1	1.01	-10.8005	18.0	9	1.1	0.9	0.0	0.0	0.0	0.0
	1079	2	0.0	0.0	0.0	0.0	1	1.0204600000000001	-37.6396	500.0	9	1.1	0.9	0.0	0.0	0.0	0.0
	1080	2	0.0	0.0	0.0	0.0	1	1.01	-10.2023	18.0	9	1.1	0.9	0.0	0.0	0.0	0.0
	1081	1	0.0	0.0	0.0	42.78	1	1.03	-18.4788	230.0	9	1.1	0.9	0.0	0.0	0.0	0.0
	1082	2	0.0	0.0	0.0	0.0	1	1.0271700000000001	-5.936719999999999	115.0	9	1.1	0.9	0.0	0.0	0.0	0.0
	1083	1	39.95	11.32	0.0	32.03	1	1.03	-9.8632	115.0	9	1.1	0.9	0.0	0.0	0.0	0.0
	1084	2	0.0	0.0	0.0	0.0	1	1.03696	-16.3943	115.0	9	1.1	0.9	0.0	0.0	0.0	0.0
	1085	1	21.3	6.03	0.0	0.0	1	1.01578	-15.0727	115.0	9	1.1	0.9	0.0	0.0	0.0	0.0
	1086	1	39.67	11.24	0.0	37.39	1	1.03	-17.3999	115.0	9	1.1	0.9	0.0	0.0	0.0	0.0
	1087	1	0.91	0.26	0.0	4.9	1	1.03	-16.049	115.0	9	1.1	0.9	0.0	0.0	0.0	0.0
	1088	2	0.0	0.0	0.0	0.0	1	1.0	-11.7123	115.0	9	1.1	0.9	0.0	0.0	0.0	0.0
	1089	1	40.6	11.5	0.0	0.0	1	0.9878979999999999	-21.4551	115.0	9	1.1	0.9	0.0	0.0	0.0	0.0
	1090	2	0.0	0.0	0.0	0.0	1	1.02	-15.7262	115.0	9	1.1	0.9	0.0	0.0	0.0	0.0
	1091	1	11.62	3.29	0.0	0.0	1	1.03131	-31.796999999999997	161.0	9	1.1	0.9	0.0	0.0	0.0	0.0
	2001	1	48.36	13.699999999999998	0.0	0.0	2	1.00763	-59.6547	161.0	11	1.1	0.9	0.0	0.0	0.0	0.0
	2002	1	0.0	0.0	0.0	0.0	2	1.02037	-61.15600000000001	500.0	11	1.1	0.9	0.0	0.0	0.0	0.0
	2003	1	0.0	0.0	0.0	0.0	2	1.02225	-63.38	161.0	11	1.1	0.9	0.0	0.0	0.0	0.0
	2004	1	0.0	0.0	0.0	0.0	2	1.02037	-61.15600000000001	13.8	11	1.1	0.9	0.0	0.0	0.0	0.0
	2005	1	0.0	0.0	0.0	0.0	2	1.02037	-61.15600000000001	13.8	11	1.1	0.9	0.0	0.0	0.0	0.0
	2006	1	0.0	0.0	0.0	0.0	2	1.02037	-61.15600000000001	13.8	11	1.1	0.9	0.0	0.0	0.0	0.0
	2007	1	9.54	2.7	0.0	0.0	2	1.00899	-59.42269999999999	161.0	11	1.1	0.9	0.0	0.0	0.0	0.0
	2008	1	8.06	2.28	0.0	0.0	2	1.01365	-33.769	161.0	10	1.1	0.9	0.0	0.0	0.0	0.0
	2009	1	39.14	11.09	0.0	131.5	2	1.03	-45.1637	161.0	11	1.1	0.9	0.0	0.0	0.0	0.0
	2010	1	56.81	16.09	0.0	28.689999999999998	2	1.03	-36.6402	161.0	10	1.1	0.9	0.0	0.0	0.0	0.0
	2011	1	0.0	0.0	0.0	0.0	2	1.02976	-33.0724	500.0	10	1.1	0.9	0.0	0.0	0.0	0.0
	2012	1	0.0	0.0	0.0	0.0	2	1.02029	-30.8629	161.0	10	1.1	0.9	0.0	0.0	0.0	0.0
	2013	2	0.0	0.0	0.0	0.0	2	1.0213	-30.690400000000004	18.0	10	1.1	0.9	0.0	0.0	0.0	0.0
	2014	1	25.429999999999996	7.200000000000001	0.0	0.0	2	1.01454	-34.2962	161.0	10	1.1	0.9	0.0	0.0	0.0	0.0
	2015	1	4.69	1.33	0.0	0.0	2	1.0155299999999998	-62.774699999999996	161.0	11	1.1	0.9	0.0	0.0	0.0	0.0
	2016	1	69.27	19.63	0.0	0.0	2	1.02042	-69.30440000000002	161.0	11	1.1	0.9	0.0	0.0	0.0	0.0
	2017	1	0.0	0.0	0.0	-17.18	2	1.03	-33.7017	500.0	10	1.1	0.9	0.0	0.0	0.0	0.0
	2018	1	0.0	0.0	0.0	0.0	2	1.0248	-32.7849	161.0	10	1.1	0.9	0.0	0.0	0.0	0.0
	2019	1	0.0	0.0	0.0	0.0	2	1.03	-33.7017	20.0	10	1.1	0.9	0.0	0.0	0.0	0.0
	2020	1	47.97	13.59	0.0	0.0	2	1.00043	-44.7529	161.0	11	1.1	0.9	0.0	0.0	0.0	0.0
	2021	1	0.0	0.0	0.0	0.0	2	1.01872	-56.4272	500.0	11	1.1	0.9	0.0	0.0	0.0	0.0
	2022	1	11.56	3.2799999999999994	0.0	0.0	2	1.01557	-58.328	161.0	11	1.1	0.9	0.0	0.0	0.0	0.0
	2023	2	0.0	0.0	0.0	0.0	2	1.02	-54.8654	13.8	11	1.1	0.9	0.0	0.0	0.0	0.0
	2024	2	0.0	0.0	0.0	0.0	2	1.02	-54.2025	13.8	11	1.1	0.9	0.0	0.0	0.0	0.0
	2025	1	39.62	11.23	0.0	0.0	2	0.9986360000000001	-43.98610000000001	161.0	11	1.1	0.9	0.0	0.0	0.0	0.0
	2026	1	18.57	5.26	0.0	0.0	2	1.01785	-32.0436	161.0	10	1.1	0.9	0.0	0.0	0.0	0.0
	2027	1	3.55	1.01	0.0	0.0	2	1.00835	-60.0775	161.0	11	1.1	0.9	0.0	0.0	0.0	0.0
	2028	1	14.24	4.03	0.0	0.0	2	1.00149	-47.0922	161.0	11	1.1	0.9	0.0	0.0	0.0	0.0
	2029	1	3.2	0.91	0.0	0.0	2	1.02213	-33.6311	161.0	10	1.1	0.9	0.0	0.0	0.0	0.0
	2030	1	47.15	13.36	0.0	0.0	2	0.9974430000000001	-63.6035	161.0	11	1.1	0.9	0.0	0.0	0.0	0.0
	2031	1	5.77	1.63	0.0	0.0	2	1.02762	-30.050700000000003	161.0	10	1.1	0.9	0.0	0.0	0.0	0.0
	2032	1	3.35	0.95	0.0	0.0	2	1.01071	-58.83140000000001	161.0	11	1.1	0.9	0.0	0.0	0.0	0.0
	2033	1	13.570000000000002	3.85	0.0	0.0	2	1.0011700000000001	-65.0675	161.0	11	1.1	0.9	0.0	0.0	0.0	0.0
	2034	1	5.34	1.51	0.0	0.0	2	1.0241	-68.7088	161.0	11	1.1	0.9	0.0	0.0	0.0	0.0
	2035	1	4.68	1.33	0.0	0.0	2	1.02346	-30.7776	161.0	10	1.1	0.9	0.0	0.0	0.0	0.0
	2036	1	41.59	11.78	0.0	0.0	2	1.00453	-44.3686	161.0	11	1.1	0.9	0.0	0.0	0.0	0.0
	2037	1	3.5000000000000004	0.9899999999999999	0.0	0.0	2	1.0265799999999998	-63.10360000000001	161.0	11	1.1	0.9	0.0	0.0	0.0	0.0
	2038	1	2.6	0.74	0.0	0.0	2	1.01892	-63.840500000000006	161.0	11	1.1	0.9	0.0	0.0	0.0	0.0
	2039	1	5.56	1.58	0.0	0.0	2	0.999397	-60.1949	161.0	11	1.1	0.9	0.0	0.0	0.0	0.0
	2040	1	15.9	4.51	0.0	0.0	2	1.01324	-58.99249999999999	161.0	11	1.1	0.9	0.0	0.0	0.0	0.0
	2041	1	0.0	0.0	0.0	0.0	2	1.02091	-28.6419	161.0	10	1.1	0.9	0.0	0.0	0.0	0.0
	2042	2	0.0	0.0	0.0	0.0	2	1.01224	-26.0302	18.0	10	1.1	0.9	0.0	0.0	0.0	0.0
	2043	1	4.24	1.2	0.0	0.0	2	1.02242	-68.9815	161.0	11	1.1	0.9	0.0	0.0	0.0	0.0
	2044	1	27.399999999999995	7.76	0.0	0.0	2	1.02315	-64.8321	161.0	11	1.1	0.9	0.0	0.0	0.0	0.0
	2045	1	22.61	6.4	0.0	0.0	2	1.00004	-45.2865	161.0	11	1.1	0.9	0.0	0.0	0.0	0.0
	2046	1	22.13	6.27	0.0	0.0	2	1.02626	-68.36210000000001	161.0	11	1.1	0.9	0.0	0.0	0.0	0.0
	2047	1	14.96	4.24	0.0	0.0	2	1.02278	-64.2739	161.0	11	1.1	0.9	0.0	0.0	0.0	0.0
	2048	1	6.419999999999999	1.82	0.0	0.0	2	1.03121	-32.2466	161.0	10	1.1	0.9	0.0	0.0	0.0	0.0
	2049	1	11.57	3.2799999999999994	0.0	0.0	2	1.02452	-40.9774	161.0	10	1.1	0.9	0.0	0.0	0.0	0.0
	2050	1	3.66	1.04	0.0	0.0	2	1.00214	-62.8326	161.0	11	1.1	0.9	0.0	0.0	0.0	0.0
	2051	1	17.85	5.06	0.0	0.0	2	0.997416	-53.8317	161.0	11	1.1	0.9	0.0	0.0	0.0	0.0
	2052	1	24.84	7.04	0.0	0.0	2	1.01285	-32.9355	161.0	10	1.1	0.9	0.0	0.0	0.0	0.0
	2053	1	29.13	8.25	0.0	0.0	2	0.9978870000000001	-58.873900000000006	161.0	11	1.1	0.9	0.0	0.0	0.0	0.0
	2054	1	0.0	0.0	0.0	0.0	2	1.0021	-43.019	500.0	11	1.1	0.9	0.0	0.0	0.0	0.0
	2055	1	49.62	14.06	0.0	0.0	2	1.0021200000000001	-43.8374	161.0	11	1.1	0.9	0.0	0.0	0.0	0.0
	2056	1	0.0	0.0	0.0	0.0	2	1.0021	-43.019	18.0	11	1.1	0.9	0.0	0.0	0.0	0.0
	2057	2	0.0	0.0	0.0	0.0	2	0.99	-38.5807	18.0	11	1.1	0.9	0.0	0.0	0.0	0.0
	2058	1	0.0	0.0	0.0	0.0	2	1.02098	-28.1995	161.0	10	1.1	0.9	0.0	0.0	0.0	0.0
	2059	2	0.0	0.0	0.0	0.0	2	1.01088	-24.804100000000002	13.8	10	1.1	0.9	0.0	0.0	0.0	0.0
	2060	1	3.8	1.08	0.0	0.0	2	1.0048700000000002	-61.5725	161.0	11	1.1	0.9	0.0	0.0	0.0	0.0
	2061	1	0.0	0.0	0.0	0.0	2	1.02539	-37.5061	161.0	10	1.1	0.9	0.0	0.0	0.0	0.0
	2062	2	0.0	0.0	0.0	0.0	2	1.02	-35.2095	18.0	10	1.1	0.9	0.0	0.0	0.0	0.0
	2063	2	65.62	18.59	0.0	67.92	2	1.03	-67.7692	161.0	11	1.1	0.9	0.0	0.0	0.0	0.0
	2064	1	10.05	2.85	0.0	0.0	2	1.00958	-59.9362	161.0	11	1.1	0.9	0.0	0.0	0.0	0.0
	2065	1	78.36	22.2	0.0	90.13	2	1.03	-65.0297	161.0	11	1.1	0.9	0.0	0.0	0.0	0.0
	2066	1	7.109999999999999	2.02	0.0	0.0	2	1.02193	-27.8431	161.0	10	1.1	0.9	0.0	0.0	0.0	0.0
	2067	1	53.97	15.289999999999997	0.0	0.0	2	0.996598	-43.8923	161.0	11	1.1	0.9	0.0	0.0	0.0	0.0
	2068	1	5.76	1.63	0.0	0.0	2	1.0018200000000002	-41.8037	161.0	11	1.1	0.9	0.0	0.0	0.0	0.0
	2069	1	21.92	6.21	0.0	87.65	2	1.03	-68.4425	161.0	11	1.1	0.9	0.0	0.0	0.0	0.0
	2070	1	0.0	0.0	0.0	0.0	2	1.00369	-41.3643	161.0	11	1.1	0.9	0.0	0.0	0.0	0.0
	2071	2	0.0	0.0	0.0	0.0	2	1.0	-37.6921	18.0	11	1.1	0.9	0.0	0.0	0.0	0.0
	2072	1	9.71	2.75	0.0	0.0	2	1.02499	-66.6315	161.0	11	1.1	0.9	0.0	0.0	0.0	0.0
	2073	1	0.0	0.0	0.0	0.0	2	1.02241	-25.3215	161.0	10	1.1	0.9	0.0	0.0	0.0	0.0
	2074	1	0.0	0.0	0.0	0.0	2	1.0119	-23.4345	115.0	10	1.1	0.9	0.0	0.0	0.0	0.0
	2075	1	0.0	0.0	0.0	0.0	2	1.0119	-23.4345	115.0	10	1.1	0.9	0.0	0.0	0.0	0.0
	2076	2	0.0	0.0	0.0	0.0	2	1.0276399999999999	-24.4269	24.0	10	1.1	0.9	0.0	0.0	0.0	0.0
	2077	1	0.0	0.0	0.0	0.0	2	1.02635	-60.71820000000001	161.0	11	1.1	0.9	0.0	0.0	0.0	0.0
	2078	2	0.0	0.0	0.0	0.0	2	1.02	-57.4097	13.8	11	1.1	0.9	0.0	0.0	0.0	0.0
	2079	1	4.48	1.27	0.0	0.0	2	1.0314	-34.9863	161.0	10	1.1	0.9	0.0	0.0	0.0	0.0
	2080	1	16.93	4.8	0.0	0.0	2	1.0027700000000002	-57.1098	161.0	11	1.1	0.9	0.0	0.0	0.0	0.0
	2081	1	4.46	1.26	0.0	0.0	2	1.01291	-64.6264	161.0	11	1.1	0.9	0.0	0.0	0.0	0.0
	2082	1	59.03	16.73	0.0	0.0	2	1.0093299999999998	-44.7232	161.0	11	1.1	0.9	0.0	0.0	0.0	0.0
	2083	2	0.0	0.0	0.0	0.0	2	1.02	-43.148999999999994	20.0	11	1.1	0.9	0.0	0.0	0.0	0.0
	2084	1	0.0	0.0	0.0	0.0	2	1.0093299999999998	-44.7232	20.0	11	1.1	0.9	0.0	0.0	0.0	0.0
	2085	1	0.0	0.0	0.0	0.0	2	1.0093299999999998	-44.7232	20.0	11	1.1	0.9	0.0	0.0	0.0	0.0
	2086	1	2.19	0.62	0.0	0.0	2	1.00062	-59.03150000000001	161.0	11	1.1	0.9	0.0	0.0	0.0	0.0
	2087	1	7.9	2.24	0.0	0.0	2	1.02436	-27.7781	161.0	10	1.1	0.9	0.0	0.0	0.0	0.0
	2088	1	0.0	0.0	0.0	0.0	2	1.00271	-41.4958	161.0	11	1.1	0.9	0.0	0.0	0.0	0.0
	2089	2	0.0	0.0	0.0	0.0	2	1.0	-37.8993	24.0	11	1.1	0.9	0.0	0.0	0.0	0.0
	2090	1	2.42	0.69	0.0	0.0	2	1.00915	-60.68399999999999	161.0	11	1.1	0.9	0.0	0.0	0.0	0.0
	2091	1	17.05	4.83	0.0	0.0	2	1.02547	-34.1974	161.0	10	1.1	0.9	0.0	0.0	0.0	0.0
	2092	1	24.11	6.83	0.0	0.0	2	1.02467	-66.0988	161.0	11	1.1	0.9	0.0	0.0	0.0	0.0
	2093	1	0.0	0.0	0.0	0.0	2	1.02282	-31.774400000000004	161.0	10	1.1	0.9	0.0	0.0	0.0	0.0
	2094	1	0.0	0.0	0.0	0.0	2	1.02282	-31.774400000000004	13.8	10	1.1	0.9	0.0	0.0	0.0	0.0
	2095	1	0.0	0.0	0.0	0.0	2	1.02282	-31.774400000000004	13.8	10	1.1	0.9	0.0	0.0	0.0	0.0
	2096	1	0.0	0.0	0.0	-63.13999999999999	2	1.03	-29.0256	500.0	10	1.1	0.9	0.0	0.0	0.0	0.0
	2097	1	0.0	0.0	0.0	0.0	2	1.02852	-28.3891	230.0	10	1.1	0.9	0.0	0.0	0.0	0.0
	2098	1	0.0	0.0	0.0	0.0	2	1.03246	-31.260299999999997	161.0	10	1.1	0.9	0.0	0.0	0.0	0.0
	2099	2	0.0	0.0	0.0	0.0	2	1.0295299999999998	-28.8845	18.0	10	1.1	0.9	0.0	0.0	0.0	0.0
	2100	2	0.0	0.0	0.0	0.0	2	1.0208	-26.4196	18.0	10	1.1	0.9	0.0	0.0	0.0	0.0
	2101	1	0.0	0.0	0.0	0.0	2	1.02049	-62.21589999999999	500.0	11	1.1	0.9	0.0	0.0	0.0	0.0
	2102	1	0.0	0.0	0.0	0.0	2	1.02071	-63.616800000000005	161.0	11	1.1	0.9	0.0	0.0	0.0	0.0
	2103	1	0.0	0.0	0.0	0.0	2	1.02049	-62.21589999999999	20.0	11	1.1	0.9	0.0	0.0	0.0	0.0
	2104	1	0.0	0.0	0.0	0.0	2	1.02049	-62.21589999999999	20.0	11	1.1	0.9	0.0	0.0	0.0	0.0
	2105	1	0.0	0.0	0.0	0.0	2	1.02049	-62.21589999999999	20.0	11	1.1	0.9	0.0	0.0	0.0	0.0
	2106	1	14.400000000000002	4.08	0.0	0.0	2	1.00011	-65.6877	161.0	11	1.1	0.9	0.0	0.0	0.0	0.0
	2107	1	74.15	21.01	0.0	0.0	2	1.0155299999999998	-64.4635	161.0	11	1.1	0.9	0.0	0.0	0.0	0.0
	2108	1	2.14	0.61	0.0	0.0	2	1.00948	-43.368	161.0	10	1.1	0.9	0.0	0.0	0.0	0.0
	2109	1	33.81	9.58	0.0	0.0	2	1.0154	-46.256	161.0	11	1.1	0.9	0.0	0.0	0.0	0.0
...
];

%% generator data
%    bus    Pg    Qg    Qmax    Qmin    Vg    mBase    status    Pmax    Pmin    Pc1    Pc2    Qc1min    Qc1max    Qc2min    Qc2max    ramp_agc    ramp_10    ramp_30    ramp_q    apf
mpc.gen = [
	1004	158.25	-30.380000000000003	44.94	-30.380000000000003	1.01	253.2	1	211.0	63.3	0.0	0.0	0.0	0.0	0.0	0.0	0.0	0.0	0.0	0.0	211.0	0.0	0.0	0.0	0.0
	1006	25.730000000000004	-4.94	7.31	-4.94	1.0	41.16	1	34.3	10.29	0.0	0.0	0.0	0.0	0.0	0.0	0.0	0.0	0.0	0.0	34.3	0.0	0.0	0.0	0.0
	1009	61.870000000000005	-11.88	17.57	-11.88	1.0	99.0	1	82.5	24.75	0.0	0.0	0.0	0.0	0.0	0.0	0.0	0.0	0.0	0.0	82.5	0.0	0.0	0.0	0.0
	1011	9.99	0.0	0.0	0.0	1.0	12.0	1	10.0	3.0	0.0	0.0	0.0	0.0	0.0	0.0	0.0	0.0	0.0	0.0	10.0	0.0	0.0	0.0	0.0
	1021	149.63	-28.73	42.49	-28.73	1.0	239.4	1	199.5	59.85	0.0	0.0	0.0	0.0	0.0	0.0	0.0	0.0	0.0	0.0	199.5	0.0	0.0	0.0	0.0
	1023	135.0	-1.36	38.34	-25.920000000000005	1.01	216.0	1	180.0	54.0	0.0	0.0	0.0	0.0	0.0	0.0	0.0	0.0	0.0	0.0	180.0	0.0	0.0	0.0	0.0
	1026	93.15	-7.89	26.450000000000003	-17.88	1.0	149.04	1	124.2	37.26	0.0	0.0	0.0	0.0	0.0	0.0	0.0	0.0	0.0	0.0	124.2	0.0	0.0	0.0	0.0
	1033	208.5	-40.03	59.209999999999994	-40.03	1.0	333.6	1	278.0	83.4	0.0	0.0	0.0	0.0	0.0	0.0	0.0	0.0	0.0	0.0	278.0	0.0	0.0	0.0	0.0
	1035	67.5	-12.960000000000003	19.17	-12.960000000000003	1.0	108.0	1	90.0	27.0	0.0	0.0	0.0	0.0	0.0	0.0	0.0	0.0	0.0	0.0	90.0	0.0	0.0	0.0	0.0
	1039	110.63000000000001	-21.24	31.42	-21.24	1.0	177.0	1	147.5	44.25	0.0	0.0	0.0	0.0	0.0	0.0	0.0	0.0	0.0	0.0	147.5	0.0	0.0	0.0	0.0
	1042	0.0	0.0	25.96	-17.55	1.0	146.28	0	121.9	36.57	0.0	0.0	0.0	0.0	0.0	0.0	0.0	0.0	0.0	0.0	121.9	0.0	0.0	0.0	0.0
	1043	44.1	-4.93	12.520000000000001	-8.47	1.0	70.56	1	58.8	17.64	0.0	0.0	0.0	0.0	0.0	0.0	0.0	0.0	0.0	0.0	58.8	0.0	0.0	0.0	0.0
	1048	0.0	0.0	165.53	-36.1	1.0	390.24	0	325.2	97.56	0.0	0.0	0.0	0.0	0.0	0.0	0.0	0.0	132.06	0.0	325.2	0.0	0.0	0.0	0.0
	1049	0.0	0.0	165.53	-36.1	1.0	390.24	0	325.2	97.56	0.0	0.0	0.0	0.0	0.0	0.0	0.0	0.0	132.06	0.0	325.2	0.0	0.0	0.0	0.0
	1050	89.27	-9.92	45.5	-9.92	1.0	107.28	1	89.4	26.82	0.0	0.0	0.0	0.0	0.0	0.0	0.0	0.0	44.7	0.0	89.4	0.0	0.0	0.0	0.0
	1051	89.27	-7.9399999999999995	45.5	-9.92	1.0	107.28	1	89.4	26.82	0.0	0.0	0.0	0.0	0.0	0.0	0.0	0.0	44.7	0.0	89.4	0.0	0.0	0.0	0.0
	1052	89.27	-9.92	45.5	-9.92	1.0	107.28	1	89.4	26.82	0.0	0.0	0.0	0.0	0.0	0.0	0.0	0.0	44.7	0.0	89.4	0.0	0.0	0.0	0.0
	1053	0.0	0.0	91.01	-19.85	1.0	214.56	0	178.8	53.64	0.0	0.0	0.0	0.0	0.0	0.0	0.0	0.0	89.4	0.0	178.8	0.0	0.0	0.0	0.0
	1057	0.0	0.0	25.56	-17.28	1.0	144.0	0	120.0	36.0	0.0	0.0	0.0	0.0	0.0	0.0	0.0	0.0	0.0	0.0	120.0	0.0	0.0	0.0	0.0
	1059	0.0	0.0	2.85	-0.62	1.04	6.72	0	5.6	1.68	0.0	0.0	0.0	0.0	0.0	0.0	0.0	0.0	2.8	0.0	5.6	0.0	0.0	0.0	0.0
	1060	0.0	0.0	1.02	-0.22	1.04	2.4	0	2.0	0.6	0.0	0.0	0.0	0.0	0.0	0.0	0.0	0.0	1.0	0.0	2.0	0.0	0.0	0.0	0.0
	1062	0.0	0.0	0.0	0.0	1.01	1.8	0	1.5	0.45000000000000007	0.0	0.0	0.0	0.0	0.0	0.0	0.0	0.0	0.0	0.0	1.5	0.0	0.0	0.0	0.0
	1063	0.0	0.0	0.0	0.0	1.01	276.0	0	229.99999999999997	69.0	0.0	0.0	0.0	0.0	0.0	0.0	0.0	0.0	0.0	0.0	230.0	0.0	0.0	0.0	0.0
	1066	106.88	-4.79	30.349999999999998	-20.52	1.0	171.0	1	142.5	42.75	0.0	0.0	0.0	0.0	0.0	0.0	0.0	0.0	0.0	0.0	142.5	0.0	0.0	0.0	0.0
	1070	120.38	16.42	34.19	-23.11	1.04	192.6	1	160.5	48.15	0.0	0.0	0.0	0.0	0.0	0.0	0.0	0.0	0.0	0.0	160.5	0.0	0.0	0.0	0.0
	1072	191.85	10.71	97.8	-21.33	1.01	230.56	1	192.13	57.64	0.0	0.0	0.0	0.0	0.0	0.0	0.0	0.0	96.06	0.0	192.13	0.0	0.0	0.0	0.0
	1073	191.85	23.64	97.8	-21.33	1.01	230.56	1	192.13	57.64	0.0	0.0	0.0	0.0	0.0	0.0	0.0	0.0	96.06	0.0	192.13	0.0	0.0	0.0	0.0
	1074	191.85	18.7	97.8	-21.33	1.01	230.56	1	192.13	57.64	0.0	0.0	0.0	0.0	0.0	0.0	0.0	0.0	96.06	0.0	192.13	0.0	0.0	0.0	0.0
	1075	191.85	17.01	97.8	-21.33	1.01	230.56	1	192.13	57.64	0.0	0.0	0.0	0.0	0.0	0.0	0.0	0.0	96.06	0.0	192.13	0.0	0.0	0.0	0.0
	1076	0.0	0.0	97.8	-21.33	1.01	230.56	0	192.13	57.64	0.0	0.0	0.0	0.0	0.0	0.0	0.0	0.0	96.06	0.0	192.13	0.0	0.0	0.0	0.0
	1077	0.0	0.0	97.8	-21.33	1.01	230.56	0	192.13	57.64	0.0	0.0	0.0	0.0	0.0	0.0	0.0	0.0	96.06	0.0	192.13	0.0	0.0	0.0	0.0
	1078	95.36	9.08	48.61	-10.6	1.01	114.6	1	95.5	28.65	0.0	0.0	0.0	0.0	0.0	0.0	0.0	0.0	47.75	0.0	95.5	0.0	0.0	0.0	0.0
	1079	95.36	-10.6	48.61	-10.6	1.01	114.6	1	95.5	28.65	0.0	0.0	0.0	0.0	0.0	0.0	0.0	0.0	47.75	0.0	95.5	0.0	0.0	0.0	0.0
	1080	95.36	6.370000000000001	48.61	-10.6	1.01	114.6	1	95.5	28.65	0.0	0.0	0.0	0.0	0.0	0.0	0.0	0.0	47.75	0.0	95.5	0.0	0.0	0.0	0.0
	1081	0.0	0.0	145.83	-31.8	1.01	343.8	0	286.5	85.95	0.0	0.0	0.0	0.0	0.0	0.0	0.0	0.0	124.66	0.0	286.5	0.0	0.0	0.0	0.0
	1082	112.5	-21.6	31.95	-21.6	1.0	180.0	1	150.0	45.0	0.0	0.0	0.0	0.0	0.0	0.0	0.0	0.0	0.0	0.0	150.0	0.0	0.0	0.0	0.0
	1084	86.62	24.6	24.6	-16.63	1.04	138.6	1	115.5	34.65	0.0	0.0	0.0	0.0	0.0	0.0	0.0	0.0	0.0	0.0	115.5	0.0	0.0	0.0	0.0
	1088	56.25	-8.13	15.97	-10.8	1.0	90.0	1	75.0	22.5	0.0	0.0	0.0	0.0	0.0	0.0	0.0	0.0	0.0	0.0	75.0	0.0	0.0	0.0	0.0
	1090	114.36999999999999	9.6	32.48	-21.96	1.02	183.0	1	152.5	45.75	0.0	0.0	0.0	0.0	0.0	0.0	0.0	0.0	0.0	0.0	152.5	0.0	0.0	0.0	0.0
	1090	27.0	7.670000000000001	7.670000000000001	-5.18	1.02	43.2	1	36.0	10.8	0.0	0.0	0.0	0.0	0.0	0.0	0.0	0.0	0.0	0.0	36.0	0.0	0.0	0.0	0.0
	2004	0.0	0.0	199.43	-43.49	1.02	470.16	0	391.8	117.54	0.0	0.0	0.0	0.0	0.0	0.0	0.0	0.0	139.54	0.0	391.8	0.0	0.0	0.0	0.0
	2005	0.0	0.0	199.43	-43.49	1.02	470.16	0	391.8	117.54	0.0	0.0	0.0	0.0	0.0	0.0	0.0	0.0	139.54	0.0	391.8	0.0	0.0	0.0	0.0
	2006	0.0	0.0	199.43	-43.49	1.02	470.16	0	391.8	117.54	0.0	0.0	0.0	0.0	0.0	0.0	0.0	0.0	139.54	0.0	391.8	0.0	0.0	0.0	0.0
	2013	150.45	-28.89	42.73	-28.89	1.0	240.72	1	200.59999999999997	60.18	0.0	0.0	0.0	0.0	0.0	0.0	0.0	0.0	0.0	0.0	200.6	0.0	0.0	0.0	0.0
	2019	0.0	0.0	46.43	-31.39	1.04	261.6	0	218.00000000000003	65.4	0.0	0.0	0.0	0.0	0.0	0.0	0.0	0.0	0.0	0.0	218.0	0.0	0.0	0.0	0.0
	2023	83.21	3.63	42.42	-9.25	1.02	100.0	1	83.33	25.0	0.0	0.0	0.0	0.0	0.0	0.0	0.0	0.0	41.66	0.0	83.33	0.0	0.0	0.0	0.0
	2024	166.42	6.12	84.83	-18.5	1.02	200.0	1	166.67	50.0	0.0	0.0	0.0	0.0	0.0	0.0	0.0	0.0	83.33	0.0	166.67	0.0	0.0	0.0	0.0
	2042	59.699999999999996	-11.46	16.95	-11.46	1.01	95.52	1	79.6	23.88	0.0	0.0	0.0	0.0	0.0	0.0	0.0	0.0	0.0	0.0	79.6	0.0	0.0	0.0	0.0
	2056	0.0	0.0	2.8	-0.73	0.99	7.2	0	6.0	1.8000000000000003	0.0	0.0	0.0	0.0	0.0	0.0	0.0	0.0	2.4	0.0	6.0	0.0	0.0	0.0	0.0
	2057	579.67	-79.15	335.52	-87.84	0.99	864.0	1	720.0	216.0	0.0	0.0	0.0	0.0	0.0	0.0	0.0	0.0	210.0	0.0	720.0	0.0	0.0	0.0	0.0
	2059	60.0	-11.52	17.04	-11.52	1.0	96.0	1	80.0	24.0	0.0	0.0	0.0	0.0	0.0	0.0	0.0	0.0	0.0	0.0	80.0	0.0	0.0	0.0	0.0
	2062	101.55000000000001	-15.32	28.84	-19.5	1.02	162.48	1	135.4	40.62	0.0	0.0	0.0	0.0	0.0	0.0	0.0	0.0	0.0	0.0	135.4	0.0	0.0	0.0	0.0
	2071	112.5	-5.4	31.95	-21.6	1.0	180.0	1	150.0	45.0	0.0	0.0	0.0	0.0	0.0	0.0	0.0	0.0	0.0	0.0	150.0	0.0	0.0	0.0	0.0
	2076	22.5	6.39	6.39	-4.32	1.04	36.0	1	30.0	9.0	0.0	0.0	0.0	0.0	0.0	0.0	0.0	0.0	0.0	0.0	30.0	0.0	0.0	0.0	0.0
	2078	84.38	-8.99	23.96	-16.2	1.02	135.0	1	112.5	33.75	0.0	0.0	0.0	0.0	0.0	0.0	0.0	0.0	0.0	0.0	112.5	0.0	0.0	0.0	0.0
	2083	19.97	7.32	10.18	-2.22	1.02	24.0	1	20.0	6.0	0.0	0.0	0.0	0.0	0.0	0.0	0.0	0.0	10.0	0.0	20.0	0.0	0.0	0.0	0.0
	2084	0.0	0.0	10.18	-2.22	1.02	24.0	0	20.0	6.0	0.0	0.0	0.0	0.0	0.0	0.0	0.0	0.0	10.0	0.0	20.0	0.0	0.0	0.0	0.0
	2085	0.0	0.0	20.36	-4.44	1.02	48.0	0	40.0	12.0	0.0	0.0	0.0	0.0	0.0	0.0	0.0	0.0	20.0	0.0	40.0	0.0	0.0	0.0	0.0
	2089	50.7	-1.6500000000000001	14.400000000000002	-9.73	1.0	81.12	1	67.6	20.28	0.0	0.0	0.0	0.0	0.0	0.0	0.0	0.0	0.0	0.0	67.6	0.0	0.0	0.0	0.0
	2094	0.0	0.0	2.13	-1.44	1.0	12.0	0	10.0	3.0	0.0	0.0	0.0	0.0	0.0	0.0	0.0	0.0	0.0	0.0	10.0	0.0	0.0	0.0	0.0
	2095	0.0	0.0	16.93	-11.45	1.0	95.4	0	79.5	23.85	0.0	0.0	0.0	0.0	0.0	0.0	0.0	0.0	0.0	0.0	79.5	0.0	0.0	0.0	0.0
	2099	7.5	-1.44	2.13	-1.44	1.02	12.0	1	10.0	3.0	0.0	0.0	0.0	0.0	0.0	0.0	0.0	0.0	0.0	0.0	10.0	0.0	0.0	0.0	0.0
	2100	112.5	-21.6	31.95	-21.6	1.02	180.0	1	150.0	45.0	0.0	0.0	0.0	0.0	0.0	0.0	0.0	0.0	0.0	0.0	150.0	0.0	0.0	0.0	0.0
	2103	0.0	0.0	136.28	-29.719999999999995	1.0	321.28	0	267.73	80.32	0.0	0.0	0.0	0.0	0.0	0.0	0.0	0.0	120.26	0.0	267.73	0.0	0.0	0.0	0.0
	2104	0.0	0.0	136.28	-29.719999999999995	1.0	321.28	0	267.73	80.32	0.0	0.0	0.0	0.0	0.0	0.0	0.0	0.0	120.26	0.0	267.73	0.0	0.0	0.0	0.0
	2105	0.0	0.0	136.28	-29.719999999999995	1.0	321.28	0	267.73	80.32	0.0	0.0	0.0	0.0	0.0	0.0	0.0	0.0	120.26	0.0	267.73	0.0	0.0	0.0	0.0
	2115	184.45	-20.5	94.02	-20.5	1.0	221.66	1	184.72	55.40999999999999	0.0	0.0	0.0	0.0	0.0	0.0	0.0	0.0	92.36	0.0	184.72	0.0	0.0	0.0	0.0
	2116	184.45	-20.5	94.02	-20.5	1.0	221.66	1	184.72	55.40999999999999	0.0	0.0	0.0	0.0	0.0	0.0	0.0	0.0	92.36	0.0	184.72	0.0	0.0	0.0	0.0
	2117	184.45	-20.5	94.02	-20.5	1.0	221.66	1	184.72	55.40999999999999	0.0	0.0	0.0	0.0	0.0	0.0	0.0	0.0	92.36	0.0	184.72	0.0	0.0	0.0	0.0
	2118	184.45	-20.5	94.02	-20.5	1.0	221.66	1	184.72	55.40999999999999	0.0	0.0	0.0	0.0	0.0	0.0	0.0	0.0	92.36	0.0	184.72	0.0	0.0	0.0	0.0
	2119	184.45	-20.5	94.02	-20.5	1.0	221.66	1	184.72	55.40999999999999	0.0	0.0	0.0	0.0	0.0	0.0	0.0	0.0	92.36	0.0	184.72	0.0	0.0	0.0	0.0
	2120	184.45	-13.019999999999998	94.02	-20.5	1.01	221.66	1	184.72	55.40999999999999	0.0	0.0	0.0	0.0	0.0	0.0	0.0	0.0	92.36	0.0	184.72	0.0	0.0	0.0	0.0
	2123	136.28	-26.16	38.7	-26.16	1.0	218.04	1	181.7	54.510000000000005	0.0	0.0	0.0	0.0	0.0	0.0	0.0	0.0	0.0	0.0	181.7	0.0	0.0	0.0	0.0
	2127	216.45	61.47	61.47	-41.56	1.04	346.32	1	288.6	86.58	0.0	0.0	0.0	0.0	0.0	0.0	0.0	0.0	0.0	0.0	288.6	0.0	0.0	0.0	0.0
	3004	28.13	-5.4	7.99	-5.4	1.0	45.0	1	37.5	11.25	0.0	0.0	0.0	0.0	0.0	0.0	0.0	0.0	0.0	0.0	37.5	0.0	0.0	0.0	0.0
	3017	127.12999999999998	-3.11	36.1	-24.41	1.01	203.4	1	169.5	50.85000000000001	0.0	0.0	0.0	0.0	0.0	0.0	0.0	0.0	0.0	0.0	169.5	0.0	0.0	0.0	0.0
	3020	112.5	-0.04	31.95	-21.6	1.03	180.0	1	150.0	45.0	0.0	0.0	0.0	0.0	0.0	0.0	0.0	0.0	0.0	0.0	150.0	0.0	0.0	0.0	0.0
	3028	150.0	30.9	42.6	-28.800000000000004	1.04	240.0	1	200.0	60.0	0.0	0.0	0.0	0.0	0.0	0.0	0.0	0.0	0.0	0.0	200.0	0.0	0.0	0.0	0.0
	3034	97.87	16.69	27.800000000000004	-18.79	1.03	156.6	1	130.5	39.15	0.0	0.0	0.0	0.0	0.0	0.0	0.0	0.0	0.0	0.0	130.5	0.0	0.0	0.0	0.0
	3039	156.75	32.46	44.52	-30.099999999999998	1.04	250.8	1	209.0	62.7	0.0	0.0	0.0	0.0	0.0	0.0	0.0	0.0	0.0	0.0	209.0	0.0	0.0	0.0	0.0
	3043	0.0	0.0	0.66	-0.14	1.04	1.56	0	1.3	0.39	0.0	0.0	0.0	0.0	0.0	0.0	0.0	0.0	0.65	0.0	1.3	0.0	0.0	0.0	0.0
	3044	0.0	0.0	45.5	-9.92	1.04	107.28	0	89.4	26.82	0.0	0.0	0.0	0.0	0.0	0.0	0.0	0.0	44.7	0.0	89.4	0.0	0.0	0.0	0.0
	3045	0.0	0.0	227.51999999999998	-49.62	1.04	536.4	0	447.0	134.1	0.0	0.0	0.0	0.0	0.0	0.0	0.0	0.0	140.69	0.0	447.0	0.0	0.0	0.0	0.0
	3048	180.75	51.33	51.33	-34.7	1.04	289.2	1	241.0	72.3	0.0	0.0	0.0	0.0	0.0	0.0	0.0	0.0	0.0	0.0	241.0	0.0	0.0	0.0	0.0
	3055	183.88	29.03	52.22	-35.3	1.04	294.2	1	245.17	73.55	0.0	0.0	0.0	0.0	0.0	0.0	0.0	0.0	0.0	0.0	245.17	0.0	0.0	0.0	0.0
	3056	183.88	20.55	52.22	-35.3	1.04	294.2	1	245.17	73.55	0.0	0.0	0.0	0.0	0.0	0.0	0.0	0.0	0.0	0.0	245.17	0.0	0.0	0.0	0.0
	3057	183.88	18.83	52.22	-35.3	1.04	294.2	1	245.17	73.55	0.0	0.0	0.0	0.0	0.0	0.0	0.0	0.0	0.0	0.0	245.17	0.0	0.0	0.0	0.0
	3060	124.22	10.79	35.28	-23.85	1.04	198.75	1	165.63	49.69	0.0	0.0	0.0	0.0	0.0	0.0	0.0	0.0	0.0	0.0	165.63	0.0	0.0	0.0	0.0
	3061	124.22	10.59	35.28	-23.85	1.04	198.75	1	165.63	49.69	0.0	0.0	0.0	0.0	0.0	0.0	0.0	0.0	0.0	0.0	165.63	0.0	0.0	0.0	0.0
	3062	124.22	12.869999999999997	35.28	-23.85	1.04	198.75	1	165.63	49.69	0.0	0.0	0.0	0.0	0.0	0.0	0.0	0.0	0.0	0.0	165.63	0.0	0.0	0.0	0.0
	3063	124.22	10.23	35.28	-23.85	1.04	198.75	1	165.63	49.69	0.0	0.0	0.0	0.0	0.0	0.0	0.0	0.0	0.0	0.0	165.63	0.0	0.0	0.0	0.0
	3065	60.370000000000005	-11.59	17.15	-11.59	1.0	96.6	1	80.5	24.15	0.0	0.0	0.0	0.0	0.0	0.0	0.0	0.0	0.0	0.0	80.5	0.0	0.0	0.0	0.0
	3068	112.5	22.42	31.95	-21.6	1.04	180.0	1	150.0	45.0	0.0	0.0	0.0	0.0	0.0	0.0	0.0	0.0	0.0	0.0	150.0	0.0	0.0	0.0	0.0
	3071	127.64999999999999	-24.51	36.25	-24.51	1.0	204.24	1	170.2	51.06	0.0	0.0	0.0	0.0	0.0	0.0	0.0	0.0	0.0	0.0	170.2	0.0	0.0	0.0	0.0
	3074	74.85	-7.15	21.26	-14.37	1.0	119.76	1	99.8	29.94	0.0	0.0	0.0	0.0	0.0	0.0	0.0	0.0	0.0	0.0	99.8	0.0	0.0	0.0	0.0
	3081	186.75	25.429999999999996	53.04	-35.86	1.04	298.8	1	249.00000000000003	74.7	0.0	0.0	0.0	0.0	0.0	0.0	0.0	0.0	0.0	0.0	249.0	0.0	0.0	0.0	0.0
	3084	174.37	-14.09	49.52	-33.48	1.0	279.0	1	232.50000000000003	69.75	0.0	0.0	0.0	0.0	0.0	0.0	0.0	0.0	0.0	0.0	232.5	0.0	0.0	0.0	0.0
	3086	56.25	-2.4	15.97	-10.8	1.0	90.0	1	75.0	22.5	0.0	0.0	0.0	0.0	0.0	0.0	0.0	0.0	0.0	0.0	75.0	0.0	0.0	0.0	0.0
	3087	0.0	0.0	15.97	-10.8	1.0	90.0	0	75.0	22.5	0.0	0.0	0.0	0.0	0.0	0.0	0.0	0.0	0.0	0.0	75.0	0.0	0.0	0.0	0.0
	3092	150.0	18.47	42.6	-28.800000000000004	1.04	240.0	1	200.0	60.0	0.0	0.0	0.0	0.0	0.0	0.0	0.0	0.0	0.0	0.0	200.0	0.0	0.0	0.0	0.0
	3095	90.45	17.28	25.69	-17.37	1.04	144.72	1	120.6	36.18	0.0	0.0	0.0	0.0	0.0	0.0	0.0	0.0	0.0	0.0	120.6	0.0	0.0	0.0	0.0
	3098	120.0	16.96	34.08	-23.04	1.04	192.0	1	160.0	48.0	0.0	0.0	0.0	0.0	0.0	0.0	0.0	0.0	0.0	0.0	160.0	0.0	0.0	0.0	0.0
	3105	44.5	-0.74	17.07	-0.74	1.0	18.0	1	44.5	0.0	0.0	0.0	0.0	0.0	0.0	0.0	0.0	0.0	0.0	0.0	15.0	0.0	0.0	0.0	0.0
	3106	53.02	-2.69	62.480000000000004	-2.69	1.0	65.88	1	18.5	0.0	0.0	0.0	0.0	0.0	0.0	0.0	0.0	0.0	0.0	0.0	54.9	0.0	0.0	0.0	0.0
	3110	63.0	11.52	17.89	-12.1	1.04	100.8	1	84.0	25.2	0.0	0.0	0.0	0.0	0.0	0.0	0.0	0.0	0.0	0.0	84.0	0.0	0.0	0.0	0.0
	3112	56.10000000000001	-4.0	15.93	-10.77	1.0	89.76	1	74.8	22.44	0.0	0.0	0.0	0.0	0.0	0.0	0.0	0.0	0.0	0.0	74.8	0.0	0.0	0.0	0.0
	3113	56.10000000000001	-3.3099999999999996	15.93	-10.77	1.0	89.76	1	74.8	22.44	0.0	0.0	0.0	0.0	0.0	0.0	0.0	0.0	0.0	0.0	74.8	0.0	0.0	0.0	0.0
	3117	47.25	-5.59	13.419999999999998	-9.07	1.0	75.6	1	63.0	18.9	0.0	0.0	0.0	0.0	0.0	0.0	0.0	0.0	0.0	0.0	63.0	0.0	0.0	0.0	0.0
	3118	90.0	-9.26	25.56	-17.28	1.0	144.0	1	120.0	36.0	0.0	0.0	0.0	0.0	0.0	0.0	0.0	0.0	0.0	0.0	120.0	0.0	0.0	0.0	0.0
	3120	29.7	0.0	0.0	0.0	1.0	47.52	1	39.6	11.88	0.0	0.0	0.0	0.0	0.0	0.0	0.0	0.0	0.0	0.0	39.6	0.0	0.0	0.0	0.0
	3122	147.75	-14.42	41.96	-28.37	1.0	236.4	1	197.0	59.099999999999994	0.0	0.0	0.0	0.0	0.0	0.0	0.0	0.0	0.0	0.0	197.0	0.0	0.0	0.0	0.0
	3127	101.25	-19.44	28.76	-19.44	1.0	162.0	1	135.0	40.5	0.0	0.0	0.0	0.0	0.0	0.0	0.0	0.0	0.0	0.0	135.0	0.0	0.0	0.0	0.0
	3129	94.88	-18.22	26.94	-18.22	1.0	151.8	1	126.49999999999999	37.95	0.0	0.0	0.0	0.0	0.0	0.0	0.0	0.0	0.0	0.0	126.5	0.0	0.0	0.0	0.0
	3131	85.5	6.75	24.28	-16.42	1.02	136.8	1	113.99999999999999	34.2	0.0	0.0	0.0	0.0	0.0	0.0	0.0	0.0	0.0	0.0	114.0	0.0	0.0	0.0	0.0
	3133	0.0	0.0	26.11	-5.69	1.04	61.56	0	51.300000000000004	15.39	0.0	0.0	0.0	0.0	0.0	0.0	0.0	0.0	25.650000000000002	0.0	51.3	0.0	0.0	0.0	0.0
	3133	0.0	0.0	26.11	-5.69	1.04	61.56	0	51.300000000000004	15.39	0.0	0.0	0.0	0.0	0.0	0.0	0.0	0.0	25.650000000000002	0.0	51.3	0.0	0.0	0.0	0.0
	3133	0.0	0.0	26.11	-5.69	1.04	61.56	0	51.300000000000004	15.39	0.0	0.0	0.0	0.0	0.0	0.0	0.0	0.0	25.650000000000002	0.0	51.3	0.0	0.0	0.0	0.0
	3137	75.9	21.56	21.56	-14.57	1.03	121.44	1	101.2	30.36	0.0	0.0	0.0	0.0	0.0	0.0	0.0	0.0	0.0	0.0	101.2	0.0	0.0	0.0	0.0
	3141	68.62	-13.18	19.49	-13.18	1.0	109.8	1	91.5	27.449999999999996	0.0	0.0	0.0	0.0	0.0	0.0	0.0	0.0	0.0	0.0	91.5	0.0	0.0	0.0	0.0
	4010	151.2	9.12	42.94	-29.03	1.03	241.92	1	201.6	60.480000000000004	0.0	0.0	0.0	0.0	0.0	0.0	0.0	0.0	0.0	0.0	201.6	0.0	0.0	0.0	0.0
	4026	409.3999999999999	42.35	191.06	-50.019999999999996	1.03	492.0	1	409.99999999999994	123.0	0.0	0.0	0.0	0.0	0.0	0.0	0.0	0.0	146.06	0.0	410.0	0.0	0.0	0.0	0.0
	4030	465.83	-41.42	290.04	-75.93	1.01	746.88	1	622.4	186.72	0.0	0.0	0.0	0.0	0.0	0.0	0.0	0.0	194.19	0.0	622.4	0.0	0.0	0.0	0.0
	4045	93.4	5.86	35.86	-1.54	1.02	37.8	1	36.0	0.0	0.0	0.0	0.0	0.0	0.0	0.0	0.0	0.0	0.0	0.0	31.5	0.0	0.0	0.0	0.0
	4046	28.499999999999996	0.91	10.94	-0.4699999999999999	1.02	11.52	1	9.6	0.0	0.0	0.0	0.0	0.0	0.0	0.0	0.0	0.0	0.0	0.0	9.6	0.0	0.0	0.0	0.0
	4047	27.48	0.6	75.1	-3.2300000000000004	1.02	79.2	1	195.7	0.0	0.0	0.0	0.0	0.0	0.0	0.0	0.0	0.0	97.85	0.0	66.0	0.0	0.0	0.0	0.0
	4050	150.0	-28.800000000000004	42.6	-28.800000000000004	1.0	240.0	1	200.0	60.0	0.0	0.0	0.0	0.0	0.0	0.0	0.0	0.0	0.0	0.0	200.0	0.0	0.0	0.0	0.0
	4052	44.13	22.5	22.5	-4.91	1.04	53.04	1	44.2	13.26	0.0	0.0	0.0	0.0	0.0	0.0	0.0	0.0	22.1	0.0	44.2	0.0	0.0	0.0	0.0
	4058	100.82	14.7	73.3	-15.98	1.03	172.8	1	144.0	43.2	0.0	0.0	0.0	0.0	0.0	0.0	0.0	0.0	72.0	0.0	144.0	0.0	0.0	0.0	0.0
	4059	85.3	15.120000000000001	73.3	-15.98	1.03	172.8	1	144.0	43.2	0.0	0.0	0.0	0.0	0.0	0.0	0.0	0.0	72.0	0.0	144.0	0.0	0.0	0.0	0.0
	4060	125.62	12.990000000000002	73.3	-15.98	1.03	172.8	1	144.0	43.2	0.0	0.0	0.0	0.0	0.0	0.0	0.0	0.0	72.0	0.0	144.0	0.0	0.0	0.0	0.0
	4061	150.33	16.74	87.72	-19.13	1.03	206.8	1	172.33	51.7	0.0	0.0	0.0	0.0	0.0	0.0	0.0	0.0	86.17	0.0	172.33	0.0	0.0	0.0	0.0
	4062	172.08	14.760000000000002	87.72	-19.13	1.03	206.8	1	172.33	51.7	0.0	0.0	0.0	0.0	0.0	0.0	0.0	0.0	86.17	0.0	172.33	0.0	0.0	0.0	0.0
	4063	126.2	16.97	87.72	-19.13	1.03	206.8	1	172.33	51.7	0.0	0.0	0.0	0.0	0.0	0.0	0.0	0.0	86.17	0.0	172.33	0.0	0.0	0.0	0.0
	4065	46.93	9.84	23.92	-5.22	1.02	56.4	1	47.0	14.099999999999998	0.0	0.0	0.0	0.0	0.0	0.0	0.0	0.0	23.5	0.0	47.0	0.0	0.0	0.0	0.0
	4075	0.0	0.0	89.75	-19.57	1.03	211.6	0	176.33	52.900000000000006	0.0	0.0	0.0	0.0	0.0	0.0	0.0	0.0	88.17	0.0	176.33	0.0	0.0	0.0	0.0
	4076	176.07	22.29	89.75	-19.57	1.03	211.6	1	176.33	52.900000000000006	0.0	0.0	0.0	0.0	0.0	0.0	0.0	0.0	88.17	0.0	176.33	0.0	0.0	0.0	0.0
	4077	98.55	16.9	89.75	-19.57	1.03	211.6	1	176.33	52.900000000000006	0.0	0.0	0.0	0.0	0.0	0.0	0.0	0.0	88.17	0.0	176.33	0.0	0.0	0.0	0.0
	4082	243.04000000000002	26.69	123.89000000000001	-27.02	1.04	292.08	1	243.4	73.02	0.0	0.0	0.0	0.0	0.0	0.0	0.0	0.0	113.77999999999999	0.0	243.4	0.0	0.0	0.0	0.0
	4083	243.04000000000002	27.21	123.89000000000001	-27.02	1.04	292.08	1	243.4	73.02	0.0	0.0	0.0	0.0	0.0	0.0	0.0	0.0	113.77999999999999	0.0	243.4	0.0	0.0	0.0	0.0
	4084	243.04000000000002	40.3	123.89000000000001	-27.02	1.04	292.08	1	243.4	73.02	0.0	0.0	0.0	0.0	0.0	0.0	0.0	0.0	113.77999999999999	0.0	243.4	0.0	0.0	0.0	0.0
	4085	171.03	41.93	179.17	-39.07	1.04	422.4	1	352.0	105.60000000000001	0.0	0.0	0.0	0.0	0.0	0.0	0.0	0.0	135.87	0.0	352.0	0.0	0.0	0.0	0.0
	4090	0.0	0.0	0.65	-0.17	1.01	1.68	0	1.4	0.42	0.0	0.0	0.0	0.0	0.0	0.0	0.0	0.0	0.56	0.0	1.4	0.0	0.0	0.0	0.0
	4091	23.47	-1.01	10.95	-2.87	1.01	28.2	1	23.5	7.049999999999999	0.0	0.0	0.0	0.0	0.0	0.0	0.0	0.0	9.4	0.0	23.5	0.0	0.0	0.0	0.0
	4092	0.0	0.0	3.54	-0.93	1.01	9.12	0	7.6	2.28	0.0	0.0	0.0	0.0	0.0	0.0	0.0	0.0	3.04	0.0	7.6	0.0	0.0	0.0	0.0
	4093	27.96	-1.55	13.05	-3.42	1.01	33.6	1	28.000000000000004	8.4	0.0	0.0	0.0	0.0	0.0	0.0	0.0	0.0	11.2	0.0	28.0	0.0	0.0	0.0	0.0
	4094	27.96	-2.66	13.05	-3.42	1.01	33.6	1	28.000000000000004	8.4	0.0	0.0	0.0	0.0	0.0	0.0	0.0	0.0	11.2	0.0	28.0	0.0	0.0	0.0	0.0
	4095	27.96	-1.5700000000000003	13.05	-3.42	1.01	33.6	1	28.000000000000004	8.4	0.0	0.0	0.0	0.0	0.0	0.0	0.0	0.0	11.2	0.0	28.0	0.0	0.0	0.0	0.0
	4096	0.0	0.0	13.05	-3.42	1.01	33.6	0	28.000000000000004	8.4	0.0	0.0	0.0	0.0	0.0	0.0	0.0	0.0	11.2	0.0	28.0	0.0	0.0	0.0	0.0
	4097	27.96	-1.41	13.05	-3.42	1.01	33.6	1	28.000000000000004	8.4	0.0	0.0	0.0	0.0	0.0	0.0	0.0	0.0	11.2	0.0	28.0	0.0	0.0	0.0	0.0
	4098	0.0	0.0	13.05	-3.42	1.01	33.6	0	28.000000000000004	8.4	0.0	0.0	0.0	0.0	0.0	0.0	0.0	0.0	11.2	0.0	28.0	0.0	0.0	0.0	0.0
	4105	135.0	13.100000000000001	38.34	-25.920000000000005	1.01	216.0	1	180.0	54.0	0.0	0.0	0.0	0.0	0.0	0.0	0.0	0.0	0.0	0.0	180.0	0.0	0.0	0.0	0.0
	4115	131.61	25.730000000000004	67.09	-14.63	1.04	158.16	1	131.8	39.54	0.0	0.0	0.0	0.0	0.0	0.0	0.0	0.0	65.9	0.0	131.8	0.0	0.0	0.0	0.0
	4116	124.88	23.21	67.09	-14.63	1.04	158.16	1	131.8	39.54	0.0	0.0	0.0	0.0	0.0	0.0	0.0	0.0	65.9	0.0	131.8	0.0	0.0	0.0	0.0
	4133	0.0	0.0	17.1	-3.73	1.0	40.32	0	33.6	10.08	0.0	0.0	0.0	0.0	0.0	0.0	0.0	0.0	16.8	0.0	33.6	0.0	0.0	0.0	0.0
	4134	10.49	-3.73	17.1	-3.73	1.0	40.32	1	33.6	10.08	0.0	0.0	0.0	0.0	0.0	0.0	0.0	0.0	16.8	0.0	33.6	0.0	0.0	0.0	0.0
	4135	10.49	-3.73	17.1	-3.73	1.0	40.32	1	33.6	10.08	0.0	0.0	0.0	0.0	0.0	0.0	0.0	0.0	16.8	0.0	33.6	0.0	0.0	0.0	0.0
	4136	10.49	-3.73	17.1	-3.73	1.0	40.32	1	33.6	10.08	0.0	0.0	0.0	0.0	0.0	0.0	0.0	0.0	16.8	0.0	33.6	0.0	0.0	0.0	0.0
	4137	0.0	0.0	34.2	-7.46	1.0	80.64	0	67.2	20.16	0.0	0.0	0.0	0.0	0.0	0.0	0.0	0.0	33.6	0.0	67.2	0.0	0.0	0.0	0.0
	4138	0.0	0.0	33.59	-7.33	1.0	79.2	0	66.0	19.8	0.0	0.0	0.0	0.0	0.0	0.0	0.0	0.0	33.0	0.0	66.0	0.0	0.0	0.0	0.0
	4142	141.0	26.200000000000003	40.04	-27.07	1.04	225.6	1	188.0	56.39999999999999	0.0	0.0	0.0	0.0	0.0	0.0	0.0	0.0	0.0	0.0	188.0	0.0	0.0	0.0	0.0
	4153	212.4	60.31999999999999	60.31999999999999	-40.78	1.04	339.84	1	283.2	84.96	0.0	0.0	0.0	0.0	0.0	0.0	0.0	0.0	0.0	0.0	283.2	0.0	0.0	0.0	0.0
	4160	197.48	55.669999999999995	100.66	-21.95	1.03	237.32	1	197.77	59.32999999999999	0.0	0.0	0.0	0.0	0.0	0.0	0.0	0.0	98.89	0.0	197.77	0.0	0.0	0.0	0.0
	4161	89.46	23.49	100.66	-21.95	1.03	237.32	1	197.77	59.32999999999999	0.0	0.0	0.0	0.0	0.0	0.0	0.0	0.0	98.89	0.0	197.77	0.0	0.0	0.0	0.0
	4162	114.14	22.39	100.66	-21.95	1.03	237.32	1	197.77	59.32999999999999	0.0	0.0	0.0	0.0	0.0	0.0	0.0	0.0	98.89	0.0	197.77	0.0	0.0	0.0	0.0
	4163	0.0	0.0	4.58	-1.0	1.03	10.8	0	9.0	2.7	0.0	0.0	0.0	0.0	0.0	0.0	0.0	0.0	4.5	0.0	9.0	0.0	0.0	0.0	0.0
	4166	150.75	-28.939999999999998	42.81	-28.939999999999998	1.0	241.2	1	200.99999999999997	60.3	0.0	0.0	0.0	0.0	0.0	0.0	0.0	0.0	0.0	0.0	201.0	0.0	0.0	0.0	0.0
	4177	112.5	-0.15	31.95	-21.6	1.04	180.0	1	150.0	45.0	0.0	0.0	0.0	0.0	0.0	0.0	0.0	0.0	0.0	0.0	150.0	0.0	0.0	0.0	0.0
	4181	150.07	42.62	42.62	-28.809999999999995	1.04	240.12	1	200.1	60.03000000000001	0.0	0.0	0.0	0.0	0.0	0.0	0.0	0.0	0.0	0.0	200.1	0.0	0.0	0.0	0.0
	4183	152.25	43.24	43.24	-29.23	1.03	243.6	1	202.99999999999997	60.9	0.0	0.0	0.0	0.0	0.0	0.0	0.0	0.0	0.0	0.0	203.0	0.0	0.0	0.0	0.0
	4192	74.89	12.560000000000002	38.17	-8.33	1.02	90.0	1	75.0	22.5	0.0	0.0	0.0	0.0	0.0	0.0	0.0	0.0	37.5	0.0	75.0	0.0	0.0	0.0	0.0
	4192	183.5	12.560000000000002	93.54	-20.4	1.02	220.52	1	183.77	55.13	0.0	0.0	0.0	0.0	0.0	0.0	0.0	0.0	91.89	0.0	183.77	0.0	0.0	0.0	0.0
	4192	0.0	0.0	12.22	-2.66	1.02	28.8	0	24.0	7.200000000000001	0.0	0.0	0.0	0.0	0.0	0.0	0.0	0.0	12.0	0.0	24.0	0.0	0.0	0.0	0.0
	4192	60.91	12.560000000000002	31.05	-6.77	1.02	73.2	1	61.0	18.3	0.0	0.0	0.0	0.0	0.0	0.0	0.0	0.0	30.5	0.0	61.0	0.0	0.0	0.0	0.0
	4192	10.38	5.29	5.29	-1.15	1.02	12.48	1	10.4	3.12	0.0	0.0	0.0	0.0	0.0	0.0	0.0	0.0	5.2	0.0	10.4	0.0	0.0	0.0	0.0
	4192	138.74	12.560000000000002	135.9	-29.64	1.02	320.4	1	267.0	80.1	0.0	0.0	0.0	0.0	0.0	0.0	0.0	0.0	120.08000000000001	0.0	267.0	0.0	0.0	0.0	0.0
	4192	158.16	12.560000000000002	135.9	-29.64	1.02	320.4	1	267.0	80.1	0.0	0.0	0.0	0.0	0.0	0.0	0.0	0.0	120.08000000000001	0.0	267.0	0.0	0.0	0.0	0.0
	4192	158.16	12.560000000000002	135.9	-29.64	1.02	320.4	1	267.0	80.1	0.0	0.0	0.0	0.0	0.0	0.0	0.0	0.0	120.08000000000001	0.0	267.0	0.0	0.0	0.0	0.0
	4192	183.5	12.560000000000002	93.54	-20.4	1.02	220.52	1	183.77	55.13	0.0	0.0	0.0	0.0	0.0	0.0	0.0	0.0	91.89	0.0	183.77	0.0	0.0	0.0	0.0
	4192	183.5	12.560000000000002	93.54	-20.4	1.02	220.52	1	183.77	55.13	0.0	0.0	0.0	0.0	0.0	0.0	0.0	0.0	91.89	0.0	183.77	0.0	0.0	0.0	0.0
	4194	151.2	42.94	42.94	-29.03	1.02	241.92	1	201.6	60.480000000000004	0.0	0.0	0.0	0.0	0.0	0.0	0.0	0.0	0.0	0.0	201.6	0.0	0.0	0.0	0.0
	4195	69.0	-13.25	19.6	-13.25	1.0	110.4	1	92.0	27.6	0.0	0.0	0.0	0.0	0.0	0.0	0.0	0.0	0.0	0.0	92.0	0.0	0.0	0.0	0.0
	5020	90.0	-17.28	25.56	-17.28	1.0	144.0	1	120.0	36.0	0.0	0.0	0.0	0.0	0.0	0.0	0.0	0.0	0.0	0.0	120.0	0.0	0.0	0.0	0.0
	5023	0.0	0.0	2.44	-0.53	1.04	5.76	0	4.8	1.44	0.0	0.0	0.0	0.0	0.0	0.0	0.0	0.0	2.4	0.0	4.8	0.0	0.0	0.0	0.0
	5035	0.0	0.0	2.14	-0.4699999999999999	1.02	5.04	0	4.2	1.26	0.0	0.0	0.0	0.0	0.0	0.0	0.0	0.0	2.1	0.0	4.2	0.0	0.0	0.0	0.0
	5036	0.0	0.0	3.26	-0.71	1.02	7.68	0	6.4	1.92	0.0	0.0	0.0	0.0	0.0	0.0	0.0	0.0	3.2	0.0	6.4	0.0	0.0	0.0	0.0
	5037	96.35	16.88	157.01	-34.24	1.02	370.16	1	308.47	92.54	0.0	0.0	0.0	0.0	0.0	0.0	0.0	0.0	129.14	0.0	308.47	0.0	0.0	0.0	0.0
	5038	96.35	16.55	157.01	-34.24	1.02	370.16	1	308.47	92.54	0.0	0.0	0.0	0.0	0.0	0.0	0.0	0.0	129.14	0.0	308.47	0.0	0.0	0.0	0.0
	5039	96.35	37.47	157.01	-34.24	1.02	370.16	1	308.47	92.54	0.0	0.0	0.0	0.0	0.0	0.0	0.0	0.0	129.14	0.0	308.47	0.0	0.0	0.0	0.0
	5040	96.35	11.89	157.01	-34.24	1.02	370.16	1	308.47	92.54	0.0	0.0	0.0	0.0	0.0	0.0	0.0	0.0	129.14	0.0	308.47	0.0	0.0	0.0	0.0
	5041	96.35	17.4	157.01	-34.24	1.02	370.16	1	308.47	92.54	0.0	0.0	0.0	0.0	0.0	0.0	0.0	0.0	129.14	0.0	308.47	0.0	0.0	0.0	0.0
	5042	96.35	15.52	157.01	-34.24	1.02	370.16	1	308.47	92.54	0.0	0.0	0.0	0.0	0.0	0.0	0.0	0.0	129.14	0.0	308.47	0.0	0.0	0.0	0.0
	5051	84.58	35.75	43.11	-9.4	1.02	101.64	1	84.7	25.41	0.0	0.0	0.0	0.0	0.0	0.0	0.0	0.0	42.35	0.0	84.7	0.0	0.0	0.0	0.0
	5057	0.0	0.0	161.53	-35.23	1.0	380.82	0	317.35	95.2	0.0	0.0	0.0	0.0	0.0	0.0	0.0	0.0	130.74	0.0	317.35	0.0	0.0	0.0	0.0
	5058	253.85	-35.23	161.53	-35.23	1.0	380.82	1	317.35	95.2	0.0	0.0	0.0	0.0	0.0	0.0	0.0	0.0	130.74	0.0	317.35	0.0	0.0	0.0	0.0
	5065	10.58	5.4	5.4	-1.18	1.03	12.72	1	10.6	3.18	0.0	0.0	0.0	0.0	0.0	0.0	0.0	0.0	5.3	0.0	10.6	0.0	0.0	0.0	0.0
	5066	0.0	0.0	0.9199999999999999	-0.2	1.03	2.16	0	1.8000000000000003	0.54	0.0	0.0	0.0	0.0	0.0	0.0	0.0	0.0	0.9000000000000001	0.0	1.8	0.0	0.0	0.0	0.0
	5067	437.62	106.81	223.08000000000004	-48.65	1.03	525.92	1	438.27	131.48	0.0	0.0	0.0	0.0	0.0	0.0	0.0	0.0	140.82	0.0	438.27	0.0	0.0	0.0	0.0
	5068	437.62	100.32	223.08000000000004	-48.65	1.03	525.92	1	438.27	131.48	0.0	0.0	0.0	0.0	0.0	0.0	0.0	0.0	140.82	0.0	438.27	0.0	0.0	0.0	0.0
	5069	437.62	94.11	223.08000000000004	-48.65	1.03	525.92	1	438.27	131.48	0.0	0.0	0.0	0.0	0.0	0.0	0.0	0.0	140.82	0.0	438.27	0.0	0.0	0.0	0.0
	5089	0.0	0.0	47.57	-2.05	1.01	50.16	0	123.9	0.0	0.0	0.0	0.0	0.0	0.0	0.0	0.0	0.0	61.95	0.0	41.8	0.0	0.0	0.0	0.0
...
];

%% branch data
%    f_bus    t_bus    r    x    b    rateA    rateB    rateC    ratio    angle    status    angmin    angmax
mpc.branch = [
	1001	1064	0.00524	0.0358	0.00609	221.0	0.0	0.0	0	0	1	-60.0001403060998	60.0001403060998	67.57	4.5	-67.33	-3.46	0.0	0.0	0.0	0.0
	1001	1064	0.00524	0.0358	0.00609	221.0	0.0	0.0	0	0	1	-60.0001403060998	60.0001403060998	67.57	4.5	-67.33	-3.46	0.0	0.0	0.0	0.0
	1001	1071	0.00435	0.02808	0.00536	221.0	0.0	0.0	0	0	1	-60.0001403060998	60.0001403060998	-77.96	-7.449999999999999	78.23	8.64	0.0	0.0	0.0	0.0
	1001	1071	0.00435	0.02808	0.00536	221.0	0.0	0.0	0	0	1	-60.0001403060998	60.0001403060998	-77.96	-7.449999999999999	78.23	8.64	0.0	0.0	0.0	0.0
	1002	1007	0.07776	0.46693	0.06336	98.0	0.0	0.0	0	0	1	-60.0001403060998	60.0001403060998	1.12	-5.05	-1.12	-1.6099999999999999	0.0	0.0	0.0	0.0
	1010	1002	0.05552000000000001	0.1357	0.017769999999999998	98.0	0.0	0.0	0	0	1	-60.0001403060998	60.0001403060998	16.68	-2.2	-16.53	0.68	0.0	0.0	0.0	0.0
	1004	1003	0.0045	0.11582	0.0	250.0	0.0	0.0	1.0	0.0	1	-60.0001403060998	60.0001403060998	-28.13	6.79	28.16	-5.85	0.0	0.0	0.0	0.0
	1022	1003	0.00485	0.02012	0.0034100000000000003	221.0	0.0	0.0	0	0	1	-60.0001403060998	60.0001403060998	74.87	-4.97	-74.6	5.71	0.0	0.0	0.0	0.0
	1055	1003	0.01574	0.03782	0.00513	196.0	0.0	0.0	0	0	1	-60.0001403060998	60.0001403060998	-46.11	0.13	46.44	0.14	0.0	0.0	0.0	0.0
	1004	3133	0.0042	0.03	0.055	523.0	0.0	0.0	0	0	1	-60.0001403060998	60.0001403060998	186.38	-37.17	-184.93	41.78	0.0	0.0	0.0	0.0
	1006	1005	0.00602	0.14707	0.0	42.0	0.0	0.0	1.0	0.0	1	-60.0001403060998	60.0001403060998	25.730000000000004	-4.94	-25.69	5.94	0.0	0.0	0.0	0.0
	1025	1005	0.01842	0.0821	0.01204	149.0	0.0	0.0	0	0	1	-60.0001403060998	60.0001403060998	42.04	5.43	-41.73	-5.26	0.0	0.0	0.0	0.0
	1005	1061	0.00599	0.02484	0.004220000000000001	221.0	0.0	0.0	0	0	1	-60.0001403060998	60.0001403060998	75.86	-24.04	-75.49	25.14	0.0	0.0	0.0	0.0
	1067	1005	0.01711	0.04181	0.00548	274.4	0.0	0.0	0	0	1	-60.0001403060998	60.0001403060998	8.54	-23.66	-8.44	23.36	0.0	0.0	0.0	0.0
	1007	1015	0.06224	0.37375	0.05072	98.0	0.0	0.0	0	0	1	-60.0001403060998	60.0001403060998	-1.23	-3.02	1.23	-2.37	0.0	0.0	0.0	0.0
	1031	1007	0.04803	0.27434000000000003	0.04123	98.0	0.0	0.0	0	0	1	-60.0001403060998	60.0001403060998	4.67	-6.06	-4.66	1.82	0.0	0.0	0.0	0.0
	1009	1008	0.00455	0.09471	0.0	120.0	0.0	0.0	1.0	0.0	1	-60.0001403060998	60.0001403060998	61.870000000000005	-11.88	-61.7	15.52	0.0	0.0	0.0	0.0
	1008	1032	0.04501	0.11002	0.01441	98.0	0.0	0.0	0	0	1	-60.0001403060998	60.0001403060998	57.28	-7.109999999999999	-55.86	9.08	0.0	0.0	0.0	0.0
	1008	1069	0.0083	0.03628	0.005529999999999999	149.0	0.0	0.0	0	0	1	-60.0001403060998	60.0001403060998	4.42	-8.41	-4.41	7.86	0.0	0.0	0.0	0.0
	1011	1010	0.007209999999999999	0.3246	0.0	46.0	0.0	0.0	1.0	0.0	1	-60.0001403060998	60.0001403060998	9.99	0.0	-9.98	0.3	0.0	0.0	0.0	0.0
	1010	1015	0.04703	0.28243	0.03833	98.0	0.0	0.0	0	0	1	-60.0001403060998	60.0001403060998	8.78	-4.1	-8.74	0.24	0.0	0.0	0.0	0.0
	1010	1030	0.0616	0.3699	0.0502	98.0	0.0	0.0	0	0	1	-60.0001403060998	60.0001403060998	-15.479999999999999	2.46	15.64	-6.819999999999999	0.0	0.0	0.0	0.0
	1012	1087	0.049339999999999995	0.20469	0.034730000000000004	149.0	0.0	0.0	0	0	1	-60.0001403060998	60.0001403060998	-76.33	23.14	79.33	-14.38	0.0	0.0	0.0	0.0
	3051	1012	0.0571	0.24977	0.03804	149.0	0.0	0.0	0	0	1	-60.0001403060998	60.0001403060998	-70.39	20.86	73.34	-12.0	0.0	0.0	0.0	0.0
	1013	1031	0.04509	0.27078	0.03675	98.0	0.0	0.0	0	0	1	-60.0001403060998	60.0001403060998	14.02	-6.68	-13.919999999999998	3.45	0.0	0.0	0.0	0.0
	1047	1013	0.009470000000000001	0.06117	0.01167	221.0	0.0	0.0	0	0	1	-60.0001403060998	60.0001403060998	58.63	-12.770000000000001	-58.3	13.71	0.0	0.0	0.0	0.0
	1086	1013	0.079	0.19311	0.02529	98.0	0.0	0.0	0	0	1	-60.0001403060998	60.0001403060998	-14.730000000000002	13.47	15.06	-15.32	0.0	0.0	0.0	0.0
	1014	1047	0.035660000000000004	0.14794000000000002	0.0251	149.0	0.0	0.0	0	0	1	-60.0001403060998	60.0001403060998	17.07	1.15	-16.97	-3.32	0.0	0.0	0.0	0.0
	1014	1083	0.04105	0.18293	0.02682	149.0	0.0	0.0	0	0	1	-60.0001403060998	60.0001403060998	-19.29	-1.78	19.44	-0.39	0.0	0.0	0.0	0.0
	1016	1034	0.01828	0.10976	0.01489	98.0	0.0	0.0	0	0	1	-60.0001403060998	60.0001403060998	-16.71	20.86	16.84	-21.64	0.0	0.0	0.0	0.0
	1068	1016	0.02773	0.15837	0.0238	98.0	0.0	0.0	0	0	1	-60.0001403060998	60.0001403060998	-13.65	-21.62	13.819999999999999	20.15	0.0	0.0	0.0	0.0
	1018	1017	0.03227	0.07887000000000001	0.010329999999999999	98.0	0.0	0.0	0	0	1	-60.0001403060998	60.0001403060998	26.0	-6.1	-25.78	5.62	0.0	0.0	0.0	0.0
	1017	1029	0.03244	0.14188	0.02161	163.9	0.0	0.0	0	0	1	-60.0001403060998	60.0001403060998	37.19	-31.71	-36.43	32.81	0.0	0.0	0.0	0.0
	1037	1017	0.007520000000000001	0.03352	0.00491	221.0	0.0	0.0	0	0	1	-60.0001403060998	60.0001403060998	-55.92	-5.11	56.169999999999995	5.7	0.0	0.0	0.0	0.0
	1047	1017	0.036000000000000004	0.156	0.024	150.0	0.0	0.0	0	0	1	-60.0001403060998	60.0001403060998	88.7	-5.59	-85.92	15.190000000000001	0.0	0.0	0.0	0.0
	1024	1018	0.01094	0.06572	0.00892	98.0	0.0	0.0	0	0	1	-60.0001403060998	60.0001403060998	26.150000000000002	-6.49	-26.07	6.08	0.0	0.0	0.0	0.0
	1019	1040	0.04978	0.20651	0.035039999999999995	149.0	0.0	0.0	0	0	1	-60.0001403060998	60.0001403060998	-13.419999999999998	13.570000000000002	13.61	-16.39	0.0	0.0	0.0	0.0
	1019	1045	0.01522	0.0372	0.00487	287.3	0.0	0.0	0	0	1	-60.0001403060998	60.0001403060998	108.25	30.630000000000003	-106.43	-26.69	0.0	0.0	0.0	0.0
	1019	1071	0.0044	0.027999999999999997	0.0054	225.0	0.0	0.0	0	0	1	-60.0001403060998	60.0001403060998	-46.24	103.08	46.77	-100.25	0.0	0.0	0.0	0.0
	1019	1071	0.0044	0.027999999999999997	0.0054	225.0	0.0	0.0	0	0	1	-60.0001403060998	60.0001403060998	46.77	-100.25	-46.24	103.08	0.0	0.0	0.0	0.0
	1019	1084	0.03	0.16	0.025	330.0	0.0	0.0	0	0	1	-60.0001403060998	60.0001403060998	-64.13	9.51	65.32	-5.8	0.0	0.0	0.0	0.0
	1021	1020	0.0032700000000000003	0.07812000000000001	0.0	250.0	0.0	0.0	1.0	0.0	1	-60.0001403060998	60.0001403060998	149.63	-28.73	-148.88	46.65	0.0	0.0	0.0	0.0
	1025	1020	0.00828	0.034339999999999996	0.00583	149.0	0.0	0.0	0	0	1	-60.0001403060998	60.0001403060998	50.74000000000001	-29.09	-50.470000000000006	29.59	0.0	0.0	0.0	0.0
	1084	1020	0.01056	0.06337000000000001	0.0086	221.0	0.0	0.0	0	0	1	-60.0001403060998	60.0001403060998	-33.49	16.89	33.63	-16.97	0.0	0.0	0.0	0.0
	1020	3059	0.0189	0.06	0.006	300.0	0.0	0.0	0	0	1	-60.0001403060998	60.0001403060998	64.15	5.43	-63.41	-3.72	0.0	0.0	0.0	0.0
	1020	3130	0.00996	0.06938	0.011340000000000001	221.0	0.0	0.0	0	0	1	-60.0001403060998	60.0001403060998	101.56999999999998	10.96	-100.59	-5.31	0.0	0.0	0.0	0.0
	1023	1022	0.00535	0.11732999999999999	0.0	250.0	0.0	0.0	1.0	0.0	1	-60.0001403060998	60.0001403060998	135.0	-1.36	-134.04	22.32	0.0	0.0	0.0	0.0
	1022	1028	0.01433	0.09253	0.01765	221.0	0.0	0.0	0	0	1	-60.0001403060998	60.0001403060998	29.59	-8.68	-29.460000000000004	7.690000000000001	0.0	0.0	0.0	0.0
	1022	1028	0.01433	0.09253	0.01765	221.0	0.0	0.0	0	0	1	-60.0001403060998	60.0001403060998	29.59	-8.68	-29.460000000000004	7.690000000000001	0.0	0.0	0.0	0.0
	1024	1090	0.01414	0.06302999999999999	0.00924	149.0	0.0	0.0	0	0	1	-60.0001403060998	60.0001403060998	-89.19	-11.37	90.34	15.52	0.0	0.0	0.0	0.0
	1026	1025	0.0042	0.18045999999999998	0.0	200.0	0.0	0.0	1.0	0.0	1	-60.0001403060998	60.0001403060998	93.15	-7.89	-92.78	23.66	0.0	0.0	0.0	0.0
	1027	1045	0.02505	0.10957	0.01669	221.0	0.0	0.0	0	0	1	-60.0001403060998	60.0001403060998	-18.44	28.63	18.72	-29.109999999999996	0.0	0.0	0.0	0.0
	1056	1027	0.03121	0.0763	0.00999	250.0	0.0	0.0	0	0	1	-60.0001403060998	60.0001403060998	85.2	-31.920000000000005	-82.77	36.79	0.0	0.0	0.0	0.0
	1028	3109	0.00428	0.01875	0.00286	250.0	0.0	0.0	0	0	1	-60.0001403060998	60.0001403060998	48.9	-18.21	-48.79	18.4	0.0	0.0	0.0	0.0
	1029	1056	0.02054	0.11732999999999999	0.01763	221.0	0.0	0.0	0	0	1	-60.0001403060998	60.0001403060998	-46.75	8.55	47.19	-7.9	0.0	0.0	0.0	0.0
	1030	1038	0.07404	0.42285	0.06354	98.0	0.0	0.0	0	0	1	-60.0001403060998	60.0001403060998	-23.59	1.38	24.0	-5.7	0.0	0.0	0.0	0.0
	1083	1030	0.06537000000000001	0.37334	0.0561	98.0	0.0	0.0	0	0	1	-60.0001403060998	60.0001403060998	16.85	-3.36	-16.67	-1.54	0.0	0.0	0.0	0.0
	1033	1032	0.00283	0.06758	0.0	187.0	0.0	0.0	1.0	0.0	1	-60.0001403060998	60.0001403060998	-119.99	40.58	120.41	-30.36	0.0	0.0	0.0	0.0
	1032	1036	0.01956	0.11746	0.01594	127.4	0.0	0.0	0	0	1	-60.0001403060998	60.0001403060998	3.7699999999999996	5.11	-3.7599999999999993	-6.67	0.0	0.0	0.0	0.0
	1038	1032	0.045	0.11	0.015	155.0	0.0	0.0	0	0	1	-60.0001403060998	60.0001403060998	70.51	-12.37	-68.32	16.16	0.0	0.0	0.0	0.0
	1033	1081	0.003	0.031	0.059000000000000004	548.0	0.0	0.0	0	0	1	-60.0001403060998	60.0001403060998	101.33000000000001	-11.28	-101.03	8.04	0.0	0.0	0.0	0.0
	1033	3050	0.0139	0.136	0.262	647.0	0.0	0.0	0	0	1	-60.0001403060998	60.0001403060998	227.16	-3.6000000000000005	-220.39	42.08	0.0	0.0	0.0	0.0
	1035	1034	0.004379999999999999	0.08496000000000001	0.0	130.0	0.0	0.0	1.0	0.0	1	-60.0001403060998	60.0001403060998	67.5	-12.960000000000003	-67.29	16.97	0.0	0.0	0.0	0.0
	1067	1034	0.00795	0.04771	0.00647	98.0	0.0	0.0	0	0	1	-60.0001403060998	60.0001403060998	-50.24999999999999	-4.12	50.45	4.66	0.0	0.0	0.0	0.0
	1088	1036	0.02065	0.11793	0.01772	98.0	0.0	0.0	0	0	1	-60.0001403060998	60.0001403060998	9.86	-4.46	-9.84	2.82	0.0	0.0	0.0	0.0
	1037	1071	0.006690000000000001	0.04319	0.00824	300.0	0.0	0.0	0	0	1	-60.0001403060998	60.0001403060998	-46.31	-23.86	46.5	24.22	0.0	0.0	0.0	0.0
	1039	1038	0.00201	0.08591	0.0	200.0	0.0	0.0	1.0	0.0	1	-60.0001403060998	60.0001403060998	110.63000000000001	-21.24	-110.38	32.04	0.0	0.0	0.0	0.0
	1082	1038	0.01115	0.04969	0.0072900000000000005	149.0	0.0	0.0	0	0	1	-60.0001403060998	60.0001403060998	61.38	-9.07	-60.97	10.11	0.0	0.0	0.0	0.0
	1083	1038	0.01	0.05	0.006999999999999999	221.0	0.0	0.0	0	0	1	-60.0001403060998	60.0001403060998	-76.23	26.41	76.84	-24.08	0.0	0.0	0.0	0.0
	1040	1090	0.029910000000000003	0.13329000000000002	0.01955	149.0	0.0	0.0	0	0	1	-60.0001403060998	60.0001403060998	-57.97	3.82	58.97	-1.37	0.0	0.0	0.0	0.0
	1042	1041	0.00419	0.11123	0.0	145.0	0.0	0.0	1.0	0.0	1	-60.0001403060998	60.0001403060998	0.0	0.0	0.0	0.0	0.0	0.0	0.0	0.0
	1043	1041	0.003	0.12844	0.0	95.0	0.0	0.0	1.0	0.0	1	-60.0001403060998	60.0001403060998	44.1	-4.93	-44.04	7.46	0.0	0.0	0.0	0.0
	1065	1041	0.00386	0.02203	0.00331	98.0	0.0	0.0	0	0	1	-60.0001403060998	60.0001403060998	15.960000000000003	8.54	-15.939999999999998	-8.8	0.0	0.0	0.0	0.0
	1041	1067	0.0039299999999999995	0.01722	0.00262	149.0	0.0	0.0	0	0	1	-60.0001403060998	60.0001403060998	59.98	1.34	-59.84	-0.9899999999999999	0.0	0.0	0.0	0.0
	1044	3019	0.03857	0.17192000000000002	0.02521	149.0	0.0	0.0	0	0	1	-60.0001403060998	60.0001403060998	46.87	-16.89	-45.97	18.29	0.0	0.0	0.0	0.0
	3130	1044	0.02731	0.19029000000000001	0.031110000000000002	221.0	0.0	0.0	0	0	1	-60.0001403060998	60.0001403060998	62.61	-8.61	-61.56	12.73	0.0	0.0	0.0	0.0
	1045	1064	0.00545	0.037939999999999995	0.0062	221.0	0.0	0.0	0	0	1	-60.0001403060998	60.0001403060998	-10.85	27.87	10.9	-28.15	0.0	0.0	0.0	0.0
	1087	1046	0.032619999999999996	0.14269	0.021730000000000003	149.0	0.0	0.0	0	0	1	-60.0001403060998	60.0001403060998	78.22	-14.580000000000002	-76.29	20.74	0.0	0.0	0.0	0.0
	1046	3009	0.05654	0.23454	0.0398	149.0	0.0	0.0	0	0	1	-60.0001403060998	60.0001403060998	65.2	-9.97	-62.9	15.310000000000002	0.0	0.0	0.0	0.0
	1048	1047	0.00335	0.06576	0.0	390.0	0.0	0.0	1.0	0.0	1	-60.0001403060998	60.0001403060998	0.0	0.0	0.0	0.0	0.0	0.0	0.0	0.0
	1049	1047	0.0027600000000000003	0.11782999999999999	0.0	390.0	0.0	0.0	1.0	0.0	1	-60.0001403060998	60.0001403060998	0.0	0.0	0.0	0.0	0.0	0.0	0.0	0.0
	1050	1047	0.00313	0.09941	0.0	124.0	0.0	0.0	1.0	0.0	1	-60.0001403060998	60.0001403060998	89.27	-9.92	-89.02	17.93	0.0	0.0	0.0	0.0
	1051	1047	0.0056	0.1283	0.0	117.0	0.0	0.0	1.0	0.0	1	-60.0001403060998	60.0001403060998	89.27	-7.9399999999999995	-88.82	18.25	0.0	0.0	0.0	0.0
	1052	1047	0.0036799999999999997	0.0826	0.0	110.00000000000001	0.0	0.0	1.0	0.0	1	-60.0001403060998	60.0001403060998	89.27	-9.92	-88.97	16.53	0.0	0.0	0.0	0.0
	1053	1047	0.0023	0.08807999999999999	0.0	250.0	0.0	0.0	1.0	0.0	1	-60.0001403060998	60.0001403060998	-81.52	22.21	81.68	-16.25	0.0	0.0	0.0	0.0
	1047	1085	0.009470000000000001	0.06117	0.01167	221.0	0.0	0.0	0	0	1	-60.0001403060998	60.0001403060998	54.77000000000001	-14.78	-54.47	15.49	0.0	0.0	0.0	0.0
	1053	1081	0.003	0.03	0.06	548.0	0.0	0.0	0	0	1	-60.0001403060998	60.0001403060998	81.52	-22.21	-81.32	17.87	0.0	0.0	0.0	0.0
	1054	1056	0.022019999999999998	0.09633	0.014669999999999999	149.0	0.0	0.0	0	0	1	-60.0001403060998	60.0001403060998	-14.46	-15.06	14.550000000000002	13.919999999999998	0.0	0.0	0.0	0.0
	1089	1054	0.08737	0.21356999999999998	0.027960000000000002	98.0	0.0	0.0	0	0	1	-60.0001403060998	60.0001403060998	0.66	-13.3	-0.53	10.82	0.0	0.0	0.0	0.0
	1055	1089	0.049819999999999996	0.12179000000000001	0.01595	176.4	0.0	0.0	0	0	1	-60.0001403060998	60.0001403060998	42.13	-1.25	-41.26	1.8000000000000003	0.0	0.0	0.0	0.0
	1057	1056	0.00315	0.1312	0.0	160.0	0.0	0.0	1.0	0.0	1	-60.0001403060998	60.0001403060998	0.0	0.0	0.0	0.0	0.0	0.0	0.0	0.0
	1056	1061	0.02267	0.12946	0.01945	150.0	0.0	0.0	0	0	1	-60.0001403060998	60.0001403060998	-58.57	24.47	59.43999999999999	-21.52	0.0	0.0	0.0	0.0
	1056	1065	0.022690000000000002	0.12962	0.01948	250.0	0.0	0.0	0	0	1	-60.0001403060998	60.0001403060998	-88.37	36.67	90.34	-27.42	0.0	0.0	0.0	0.0
	1059	1058	0.02655	0.46187	0.0	33.0	0.0	0.0	1.0	0.0	1	-60.0001403060998	60.0001403060998	0.0	0.0	0.0	0.0	0.0	0.0	0.0	0.0
	1060	1058	0.00894	0.38854	0.0	27.0	0.0	0.0	1.0	0.0	1	-60.0001403060998	60.0001403060998	0.0	0.0	0.0	0.0	0.0	0.0	0.0	0.0
	1069	1058	0.0074	0.05155	0.00843	221.0	0.0	0.0	0	0	1	-60.0001403060998	60.0001403060998	87.47	-7.2700000000000005	-86.93	10.13	0.0	0.0	0.0	0.0
	1069	1058	0.0074	0.05155	0.00843	221.0	0.0	0.0	0	0	1	-60.0001403060998	60.0001403060998	87.47	-7.2700000000000005	-86.93	10.13	0.0	0.0	0.0	0.0
	1058	1087	0.01573	0.10955999999999999	0.01791	221.0	0.0	0.0	0	0	1	-60.0001403060998	60.0001403060998	80.21	-12.03	-79.23	16.95	0.0	0.0	0.0	0.0
	1058	1087	0.01573	0.10955999999999999	0.01791	221.0	0.0	0.0	0	0	1	-60.0001403060998	60.0001403060998	80.21	-12.03	-79.23	16.95	0.0	0.0	0.0	0.0
	1062	1061	0.0163	0.31787	0.0	28.999999999999996	0.0	0.0	1.0	0.0	1	-60.0001403060998	60.0001403060998	0.0	0.0	0.0	0.0	0.0	0.0	0.0	0.0
	1063	1061	0.0056700000000000006	0.10409000000000002	0.0	260.0	0.0	0.0	1.0	0.0	1	-60.0001403060998	60.0001403060998	0.0	0.0	0.0	0.0	0.0	0.0	0.0	0.0
	1061	3042	0.054000000000000006	0.18	0.027999999999999997	221.0	0.0	0.0	0	0	1	-60.0001403060998	60.0001403060998	16.04	-3.61	-15.9	1.2	0.0	0.0	0.0	0.0
	1066	1065	0.0050799999999999994	0.12315	0.0	200.0	0.0	0.0	1.0	0.0	1	-60.0001403060998	60.0001403060998	106.88	-4.79	-106.3	18.88	0.0	0.0	0.0	0.0
	1088	1068	0.02962	0.16921	0.02543	98.0	0.0	0.0	0	0	1	-60.0001403060998	60.0001403060998	46.39	-3.66	-45.75	4.79	0.0	0.0	0.0	0.0
	1070	1069	0.00297	0.07	0.0	220.00000000000003	0.0	0.0	1.0	0.0	1	-60.0001403060998	60.0001403060998	120.38	16.42	-119.97	-6.87	0.0	0.0	0.0	0.0
	1082	1069	0.02137	0.0952	0.01396	149.0	0.0	0.0	0	0	1	-60.0001403060998	60.0001403060998	51.12	-12.53	-50.56	13.54	0.0	0.0	0.0	0.0
	1072	1071	0.0052899999999999996	0.08551	0.0	240.0	0.0	0.0	1.0	0.0	1	-60.0001403060998	60.0001403060998	191.85	10.71	-189.93	20.24	0.0	0.0	0.0	0.0
	1073	1071	0.00499	0.14254	0.0	240.0	0.0	0.0	1.0	0.0	1	-60.0001403060998	60.0001403060998	191.85	23.64	-190.02	28.559999999999995	0.0	0.0	0.0	0.0
	1074	1071	0.00575	0.12453	0.0	240.0	0.0	0.0	1.0	0.0	1	-60.0001403060998	60.0001403060998	191.85	18.7	-189.75	26.649999999999995	0.0	0.0	0.0	0.0
	1075	1071	0.00373	0.09967000000000001	0.0	240.0	0.0	0.0	1.0	0.0	1	-60.0001403060998	60.0001403060998	191.85	17.01	-190.49	19.23	0.0	0.0	0.0	0.0
	1076	1071	0.00141	0.04937	0.0	229.99999999999997	0.0	0.0	1.0	0.0	1	-60.0001403060998	60.0001403060998	0.0	0.0	0.0	0.0	0.0	0.0	0.0	0.0
	1077	1071	0.006409999999999999	0.12047000000000001	0.0	229.99999999999997	0.0	0.0	1.0	0.0	1	-60.0001403060998	60.0001403060998	0.0	0.0	0.0	0.0	0.0	0.0	0.0	0.0
	1078	1071	0.00533	0.19087	0.0	137.0	0.0	0.0	1.0	0.0	1	-60.0001403060998	60.0001403060998	95.36	9.08	-94.88	8.09	0.0	0.0	0.0	0.0
	1079	1071	0.00013000000000000002	0.046	0.0	2000.0	0.0	0.0	1.0	0.0	1	-60.0001403060998	60.0001403060998	-633.23	130.28	633.75	54.339999999999996	0.0	0.0	0.0	0.0
	1080	1071	0.01206	0.20207999999999998	0.0	136.0	0.0	0.0	1.0	0.0	1	-60.0001403060998	60.0001403060998	95.36	6.370000000000001	-94.28	11.73	0.0	0.0	0.0	0.0
	1081	1071	0.0016699999999999998	0.0665	0.0	350.0	0.0	0.0	1.0	0.0	1	-60.0001403060998	60.0001403060998	72.47	40.06	-72.36	-35.76	0.0	0.0	0.0	0.0
	3048	1079	0.0013	0.015	1.02	2300.0	0.0	0.0	0	0	1	-60.0001403060998	60.0001403060998	-411.33	38.06	413.52000000000004	-119.67000000000002	0.0	0.0	0.0	0.0
	3048	1079	0.0013	0.015	1.02	2300.0	0.0	0.0	0	0	1	-60.0001403060998	60.0001403060998	-411.33	38.06	413.52000000000004	-119.67000000000002	0.0	0.0	0.0	0.0
	1081	3058	0.0091	0.08900000000000001	0.171	548.0	0.0	0.0	0	0	1	-60.0001403060998	60.0001403060998	109.89	-20.58	-108.84	12.6	0.0	0.0	0.0	0.0
	1084	3130	0.02049	0.09131	0.01339	221.0	0.0	0.0	0	0	1	-60.0001403060998	60.0001403060998	54.78999999999999	13.5	-54.17000000000001	-12.19	0.0	0.0	0.0	0.0
	1085	1086	0.03392	0.14837999999999998	0.0226	149.0	0.0	0.0	0	0	1	-60.0001403060998	60.0001403060998	25.22	-16.09	-24.94	14.96	0.0	0.0	0.0	0.0
	1090	1085	0.02018	0.13785999999999998	0.023459999999999998	221.0	0.0	0.0	0	0	1	-60.0001403060998	60.0001403060998	-7.9399999999999995	3.11	7.95	-5.44	0.0	0.0	0.0	0.0
	2029	1091	0.0389	0.17144	0.0798	187.0	0.0	0.0	0	0	1	-60.0001403060998	60.0001403060998	-19.83	-4.83	19.98	-2.94	0.0	0.0	0.0	0.0
	1091	2048	0.02193	0.09667	0.045	187.0	0.0	0.0	0	0	1	-60.0001403060998	60.0001403060998	8.24	-4.12	-8.23	-0.6	0.0	0.0	0.0	0.0
...